mol_1
     RDKit          3D

 52 53  0  0  0  0  0  0  0  0999 V2000
   -4.5547   -1.3943   -2.6537 C   0  0  0  0  0  0  0  0  0  0  0  0
   -3.6086   -1.6361   -1.5234 C   0  0  0  0  0  0  0  0  0  0  0  0
   -3.8699   -2.5309   -0.6741 O   0  0  0  0  0  0  0  0  0  0  0  0
   -2.4168   -0.8448   -1.4093 N   0  0  0  0  0  0  0  0  0  0  0  0
   -1.5479   -0.8790   -0.2252 C   0  0  2  0  0  0  0  0  0  0  0  0
   -1.8002    0.3658    0.6447 C   0  0  0  0  0  0  0  0  0  0  0  0
   -3.2287    0.4222    1.1256 C   0  0  0  0  0  0  0  0  0  0  0  0
   -4.1213    1.3698    0.5975 C   0  0  0  0  0  0  0  0  0  0  0  0
   -5.4510    1.4017    1.0276 C   0  0  0  0  0  0  0  0  0  0  0  0
   -5.9013    0.4900    1.9919 C   0  0  0  0  0  0  0  0  0  0  0  0
   -7.2248    0.5099    2.4244 O   0  0  0  0  0  0  0  0  0  0  0  0
   -5.0143   -0.4504    2.5255 C   0  0  0  0  0  0  0  0  0  0  0  0
   -3.6842   -0.4848    2.0969 C   0  0  0  0  0  0  0  0  0  0  0  0
   -0.0956   -0.9415   -0.6298 C   0  0  0  0  0  0  0  0  0  0  0  0
    0.2412   -0.7441   -1.8300 O   0  0  0  0  0  0  0  0  0  0  0  0
    0.9070   -1.2168    0.3608 N   0  0  0  0  0  0  0  0  0  0  0  0
    2.3430   -1.1404    0.0657 C   0  0  2  0  0  0  0  0  0  0  0  0
    3.1204   -1.9403    1.1216 C   0  0  0  0  0  0  0  0  0  0  0  0
    2.7820    0.3491    0.0171 C   0  0  0  0  0  0  0  0  0  0  0  0
    3.9587    0.5845   -0.8561 N   0  0  0  0  0  0  0  0  0  0  0  0
    4.0955    2.0100   -1.1845 C   0  0  0  0  0  0  0  0  0  0  0  0
    5.5572    2.2421   -1.5063 C   0  0  0  0  0  0  0  0  0  0  0  0
    6.2952    1.2192   -0.6671 C   0  0  0  0  0  0  0  0  0  0  0  0
    5.2422    0.1976   -0.2416 C   0  0  0  0  0  0  0  0  0  0  0  0
   -4.9243   -0.3486   -2.6085 H   0  0  0  0  0  0  0  0  0  0  0  0
   -4.0302   -1.5559   -3.6185 H   0  0  0  0  0  0  0  0  0  0  0  0
   -5.4223   -2.0852   -2.5937 H   0  0  0  0  0  0  0  0  0  0  0  0
   -2.2591   -0.0939   -2.1202 H   0  0  0  0  0  0  0  0  0  0  0  0
   -1.7554   -1.7930    0.3730 H   0  0  0  0  0  0  0  0  0  0  0  0
   -1.1275    0.3604    1.5303 H   0  0  0  0  0  0  0  0  0  0  0  0
   -1.5533    1.2769    0.0549 H   0  0  0  0  0  0  0  0  0  0  0  0
   -3.7926    2.0752   -0.1560 H   0  0  0  0  0  0  0  0  0  0  0  0
   -6.1310    2.1322    0.6083 H   0  0  0  0  0  0  0  0  0  0  0  0
   -7.8906    1.1818    2.0606 H   0  0  0  0  0  0  0  0  0  0  0  0
   -5.3566   -1.1562    3.2714 H   0  0  0  0  0  0  0  0  0  0  0  0
   -3.0100   -1.2203    2.5178 H   0  0  0  0  0  0  0  0  0  0  0  0
    0.5931   -1.4639    1.3273 H   0  0  0  0  0  0  0  0  0  0  0  0
    2.5254   -1.6258   -0.9187 H   0  0  0  0  0  0  0  0  0  0  0  0
    2.6841   -2.9578    1.2165 H   0  0  0  0  0  0  0  0  0  0  0  0
    4.1804   -2.0668    0.8294 H   0  0  0  0  0  0  0  0  0  0  0  0
    3.0685   -1.4412    2.1131 H   0  0  0  0  0  0  0  0  0  0  0  0
    1.9265    0.9411   -0.3817 H   0  0  0  0  0  0  0  0  0  0  0  0
    2.9587    0.7391    1.0455 H   0  0  0  0  0  0  0  0  0  0  0  0
    3.8398    0.0617   -1.7579 H   0  0  0  0  0  0  0  0  0  0  0  0
    3.4520    2.2854   -2.0501 H   0  0  0  0  0  0  0  0  0  0  0  0
    3.8183    2.6507   -0.3142 H   0  0  0  0  0  0  0  0  0  0  0  0
    5.8695    3.2806   -1.2598 H   0  0  0  0  0  0  0  0  0  0  0  0
    5.7378    2.0449   -2.5864 H   0  0  0  0  0  0  0  0  0  0  0  0
    6.7390    1.7089    0.2283 H   0  0  0  0  0  0  0  0  0  0  0  0
    7.1063    0.7388   -1.2572 H   0  0  0  0  0  0  0  0  0  0  0  0
    5.1835    0.1875    0.8703 H   0  0  0  0  0  0  0  0  0  0  0  0
    5.5469   -0.8153   -0.5879 H   0  0  0  0  0  0  0  0  0  0  0  0
  1  2  1  0
  2  3  2  0
  2  4  1  0
  4  5  1  0
  5  6  1  0
  6  7  1  0
  7  8  2  0
  8  9  1  0
  9 10  2  0
 10 11  1  0
 10 12  1  0
 12 13  2  0
  5 14  1  0
 14 15  2  0
 14 16  1  0
 16 17  1  0
 17 18  1  0
 17 19  1  0
 19 20  1  0
 20 21  1  0
 21 22  1  0
 22 23  1  0
 23 24  1  0
 13  7  1  0
 24 20  1  0
  1 25  1  0
  1 26  1  0
  1 27  1  0
  4 28  1  0
  5 29  1  1
  6 30  1  0
  6 31  1  0
  8 32  1  0
  9 33  1  0
 11 34  1  0
 12 35  1  0
 13 36  1  0
 16 37  1  0
 17 38  1  6
 18 39  1  0
 18 40  1  0
 18 41  1  0
 19 42  1  0
 19 43  1  0
 20 44  1  0
 21 45  1  0
 21 46  1  0
 22 47  1  0
 22 48  1  0
 23 49  1  0
 23 50  1  0
 24 51  1  0
 24 52  1  0
M  CHG  1  20   1
M  END
$$$$
mol_2
     RDKit          3D

 57 58  0  0  0  0  0  0  0  0999 V2000
    3.5371    3.4614   -3.9833 C   0  0  0  0  0  0  0  0  0  0  0  0
    2.4623    2.5602   -3.4689 C   0  0  0  0  0  0  0  0  0  0  0  0
    1.3127    3.0270   -3.2440 O   0  0  0  0  0  0  0  0  0  0  0  0
    2.7429    1.1716   -3.2415 N   0  0  0  0  0  0  0  0  0  0  0  0
    1.7376    0.2409   -2.7129 C   0  0  2  0  0  0  0  0  0  0  0  0
    1.5274    0.4908   -1.2014 C   0  0  0  0  0  0  0  0  0  0  0  0
    0.4476   -0.3696   -0.5829 C   0  0  0  0  0  0  0  0  0  0  0  0
   -0.4032   -0.9317   -1.3268 O   0  0  0  0  0  0  0  0  0  0  0  0
    0.3643   -0.5402    0.8496 N   0  0  0  0  0  0  0  0  0  0  0  0
    1.0158    0.4330    1.7468 C   0  0  0  0  0  0  0  0  0  0  0  0
    0.4023    0.4646    3.1563 C   0  0  0  0  0  0  0  0  0  0  0  0
   -1.0660    0.9291    3.1733 C   0  0  0  0  0  0  0  0  0  0  0  0
   -2.0068    0.2673    2.1172 C   0  0  2  0  0  0  0  0  0  0  0  0
   -3.5353    0.6245    2.3444 C   0  0  0  0  0  0  0  0  0  0  0  0
   -4.1442   -0.1455    3.5400 C   0  0  0  0  0  0  0  0  0  0  0  0
   -3.7124    2.1417    2.6024 C   0  0  0  0  0  0  0  0  0  0  0  0
   -4.3601    0.2870    1.0755 C   0  0  0  0  0  0  0  0  0  0  0  0
   -1.7499   -1.2680    2.0111 C   0  0  0  0  0  0  0  0  0  0  0  0
   -0.3875   -1.6806    1.4010 C   0  0  0  0  0  0  0  0  0  0  0  0
    2.1571   -1.1944   -2.9881 C   0  0  0  0  0  0  0  0  0  0  0  0
    1.3567   -2.0211   -3.7979 C   0  0  0  0  0  0  0  0  0  0  0  0
    1.7323   -3.3443   -4.0492 C   0  0  0  0  0  0  0  0  0  0  0  0
    2.9105   -3.8548   -3.4997 C   0  0  0  0  0  0  0  0  0  0  0  0
    3.7171   -3.0426   -2.6996 C   0  0  0  0  0  0  0  0  0  0  0  0
    3.3461   -1.7190   -2.4450 C   0  0  0  0  0  0  0  0  0  0  0  0
    4.3869    3.4699   -3.2694 H   0  0  0  0  0  0  0  0  0  0  0  0
    3.1562    4.4980   -4.1024 H   0  0  0  0  0  0  0  0  0  0  0  0
    3.8910    3.0926   -4.9684 H   0  0  0  0  0  0  0  0  0  0  0  0
    3.6877    0.8166   -3.5147 H   0  0  0  0  0  0  0  0  0  0  0  0
    0.7750    0.4448   -3.2343 H   0  0  0  0  0  0  0  0  0  0  0  0
    2.4839    0.3163   -0.6653 H   0  0  0  0  0  0  0  0  0  0  0  0
    1.2494    1.5533   -1.0413 H   0  0  0  0  0  0  0  0  0  0  0  0
    2.0952    0.1832    1.8269 H   0  0  0  0  0  0  0  0  0  0  0  0
    0.9303    1.4567    1.3222 H   0  0  0  0  0  0  0  0  0  0  0  0
    0.9949    1.1736    3.7747 H   0  0  0  0  0  0  0  0  0  0  0  0
    0.5008   -0.5212    3.6562 H   0  0  0  0  0  0  0  0  0  0  0  0
   -1.4556    0.7533    4.1968 H   0  0  0  0  0  0  0  0  0  0  0  0
   -1.0576    2.0278    3.0064 H   0  0  0  0  0  0  0  0  0  0  0  0
   -1.7432    0.7205    1.1361 H   0  0  0  0  0  0  0  0  0  0  0  0
   -3.5898    0.0565    4.4786 H   0  0  0  0  0  0  0  0  0  0  0  0
   -5.2007    0.1608    3.7005 H   0  0  0  0  0  0  0  0  0  0  0  0
   -4.1436   -1.2403    3.3576 H   0  0  0  0  0  0  0  0  0  0  0  0
   -3.2869    2.4385    3.5842 H   0  0  0  0  0  0  0  0  0  0  0  0
   -3.2188    2.7342    1.8021 H   0  0  0  0  0  0  0  0  0  0  0  0
   -4.7883    2.4204    2.6244 H   0  0  0  0  0  0  0  0  0  0  0  0
   -4.4307   -0.8046    0.8984 H   0  0  0  0  0  0  0  0  0  0  0  0
   -5.4048    0.6546    1.1741 H   0  0  0  0  0  0  0  0  0  0  0  0
   -3.9146    0.7642    0.1762 H   0  0  0  0  0  0  0  0  0  0  0  0
   -1.8346   -1.7234    3.0217 H   0  0  0  0  0  0  0  0  0  0  0  0
   -2.5322   -1.7431    1.3893 H   0  0  0  0  0  0  0  0  0  0  0  0
    0.2331   -2.1927    2.1670 H   0  0  0  0  0  0  0  0  0  0  0  0
   -0.5529   -2.4556    0.6205 H   0  0  0  0  0  0  0  0  0  0  0  0
    0.4381   -1.6455   -4.2311 H   0  0  0  0  0  0  0  0  0  0  0  0
    1.1083   -3.9747   -4.6692 H   0  0  0  0  0  0  0  0  0  0  0  0
    3.1991   -4.8795   -3.6949 H   0  0  0  0  0  0  0  0  0  0  0  0
    4.6315   -3.4383   -2.2766 H   0  0  0  0  0  0  0  0  0  0  0  0
    3.9885   -1.1040   -1.8277 H   0  0  0  0  0  0  0  0  0  0  0  0
  1  2  1  0
  2  3  2  0
  2  4  1  0
  4  5  1  0
  5  6  1  0
  6  7  1  0
  7  8  2  0
  7  9  1  0
  9 10  1  0
 10 11  1  0
 11 12  1  0
 12 13  1  0
 13 14  1  0
 14 15  1  0
 14 16  1  0
 14 17  1  0
 13 18  1  0
 18 19  1  0
  5 20  1  0
 20 21  2  0
 21 22  1  0
 22 23  2  0
 23 24  1  0
 24 25  2  0
 19  9  1  0
 25 20  1  0
  1 26  1  0
  1 27  1  0
  1 28  1  0
  4 29  1  0
  5 30  1  6
  6 31  1  0
  6 32  1  0
 10 33  1  0
 10 34  1  0
 11 35  1  0
 11 36  1  0
 12 37  1  0
 12 38  1  0
 13 39  1  6
 15 40  1  0
 15 41  1  0
 15 42  1  0
 16 43  1  0
 16 44  1  0
 16 45  1  0
 17 46  1  0
 17 47  1  0
 17 48  1  0
 18 49  1  0
 18 50  1  0
 19 51  1  0
 19 52  1  0
 21 53  1  0
 22 54  1  0
 23 55  1  0
 24 56  1  0
 25 57  1  0
M  END
$$$$
mol_3
     RDKit          3D

 51 51  0  0  0  0  0  0  0  0999 V2000
    4.3377   -2.8764   -0.8052 C   0  0  0  0  0  0  0  0  0  0  0  0
    3.4953   -2.4821    0.1656 C   0  0  0  0  0  0  0  0  0  0  0  0
    2.3078   -3.3390    0.5352 C   0  0  0  0  0  0  0  0  0  0  0  0
    2.7396   -4.5867    1.2986 C   0  0  0  0  0  0  0  0  0  0  0  0
    3.6693   -1.1393    0.8278 C   0  0  0  0  0  0  0  0  0  0  0  0
    2.6773   -0.2398    0.3349 O   0  0  0  0  0  0  0  0  0  0  0  0
    1.7224    0.3938    1.1396 C   0  0  0  0  0  0  0  0  0  0  0  0
    1.7031    0.2105    2.3891 O   0  0  0  0  0  0  0  0  0  0  0  0
    0.6868    1.2682    0.4939 C   0  0  2  0  0  0  0  0  0  0  0  0
    0.6422    2.6527    1.1644 C   0  0  0  0  0  0  0  0  0  0  0  0
   -0.2973    3.5821    0.4367 C   0  0  0  0  0  0  0  0  0  0  0  0
   -1.5305    3.9398    1.0068 C   0  0  0  0  0  0  0  0  0  0  0  0
   -2.4052    4.7876    0.3200 C   0  0  0  0  0  0  0  0  0  0  0  0
   -2.0571    5.2886   -0.9388 C   0  0  0  0  0  0  0  0  0  0  0  0
   -2.9395    6.1300   -1.6126 O   0  0  0  0  0  0  0  0  0  0  0  0
   -0.8260    4.9396   -1.5100 C   0  0  0  0  0  0  0  0  0  0  0  0
    0.0504    4.0925   -0.8258 C   0  0  0  0  0  0  0  0  0  0  0  0
   -0.6232    0.6185    0.5911 N   0  0  0  0  0  0  0  0  0  0  0  0
   -1.4704    0.3919   -0.5456 C   0  0  0  0  0  0  0  0  0  0  0  0
   -1.1781    0.8809   -1.6702 O   0  0  0  0  0  0  0  0  0  0  0  0
   -2.6995   -0.4583   -0.4116 C   0  0  0  0  0  0  0  0  0  0  0  0
   -2.4730   -1.8750   -0.9802 C   0  0  0  0  0  0  0  0  0  0  0  0
   -3.7906   -2.6606   -0.9829 C   0  0  0  0  0  0  0  0  0  0  0  0
   -1.4053   -2.6409   -0.1832 C   0  0  0  0  0  0  0  0  0  0  0  0
    5.1749   -2.2544   -1.1077 H   0  0  0  0  0  0  0  0  0  0  0  0
    4.1986   -3.8277   -1.3127 H   0  0  0  0  0  0  0  0  0  0  0  0
    1.6045   -2.7625    1.1760 H   0  0  0  0  0  0  0  0  0  0  0  0
    1.7555   -3.6334   -0.3851 H   0  0  0  0  0  0  0  0  0  0  0  0
    1.8401   -5.1793    1.5746 H   0  0  0  0  0  0  0  0  0  0  0  0
    3.4018   -5.2200    0.6716 H   0  0  0  0  0  0  0  0  0  0  0  0
    3.2783   -4.3010    2.2291 H   0  0  0  0  0  0  0  0  0  0  0  0
    4.6723   -0.7117    0.6139 H   0  0  0  0  0  0  0  0  0  0  0  0
    3.6009   -1.2697    1.9293 H   0  0  0  0  0  0  0  0  0  0  0  0
    0.9773    1.3994   -0.5712 H   0  0  0  0  0  0  0  0  0  0  0  0
    1.6592    3.1037    1.1705 H   0  0  0  0  0  0  0  0  0  0  0  0
    0.3276    2.5397    2.2260 H   0  0  0  0  0  0  0  0  0  0  0  0
   -1.8202    3.5550    1.9772 H   0  0  0  0  0  0  0  0  0  0  0  0
   -3.3557    5.0536    0.7652 H   0  0  0  0  0  0  0  0  0  0  0  0
   -2.7162    6.5095   -2.5253 H   0  0  0  0  0  0  0  0  0  0  0  0
   -0.5478    5.3229   -2.4838 H   0  0  0  0  0  0  0  0  0  0  0  0
    0.9991    3.8322   -1.2792 H   0  0  0  0  0  0  0  0  0  0  0  0
   -0.9590    0.3150    1.5339 H   0  0  0  0  0  0  0  0  0  0  0  0
   -3.0077   -0.5190    0.6561 H   0  0  0  0  0  0  0  0  0  0  0  0
   -3.5269    0.0388   -0.9655 H   0  0  0  0  0  0  0  0  0  0  0  0
   -2.1296   -1.7874   -2.0366 H   0  0  0  0  0  0  0  0  0  0  0  0
   -4.1625   -2.8030    0.0555 H   0  0  0  0  0  0  0  0  0  0  0  0
   -4.5628   -2.1146   -1.5689 H   0  0  0  0  0  0  0  0  0  0  0  0
   -3.6427   -3.6584   -1.4512 H   0  0  0  0  0  0  0  0  0  0  0  0
   -1.2764   -3.6648   -0.5931 H   0  0  0  0  0  0  0  0  0  0  0  0
   -0.4273   -2.1240   -0.2556 H   0  0  0  0  0  0  0  0  0  0  0  0
   -1.6915   -2.7176    0.8890 H   0  0  0  0  0  0  0  0  0  0  0  0
  1  2  2  3
  2  3  1  0
  3  4  1  0
  2  5  1  0
  5  6  1  0
  6  7  1  0
  7  8  2  0
  7  9  1  0
  9 10  1  0
 10 11  1  0
 11 12  2  0
 12 13  1  0
 13 14  2  0
 14 15  1  0
 14 16  1  0
 16 17  2  0
  9 18  1  0
 18 19  1  0
 19 20  2  0
 19 21  1  0
 21 22  1  0
 22 23  1  0
 22 24  1  0
 17 11  1  0
  1 25  1  0
  1 26  1  0
  3 27  1  0
  3 28  1  0
  4 29  1  0
  4 30  1  0
  4 31  1  0
  5 32  1  0
  5 33  1  0
  9 34  1  6
 10 35  1  0
 10 36  1  0
 12 37  1  0
 13 38  1  0
 15 39  1  0
 16 40  1  0
 17 41  1  0
 18 42  1  0
 21 43  1  0
 21 44  1  0
 22 45  1  0
 23 46  1  0
 23 47  1  0
 23 48  1  0
 24 49  1  0
 24 50  1  0
 24 51  1  0
M  END
$$$$
mol_4
     RDKit          3D

 55 56  0  0  0  0  0  0  0  0999 V2000
   -5.3514    3.7835   -1.8046 C   0  0  0  0  0  0  0  0  0  0  0  0
   -4.2159    3.2378   -1.0022 C   0  0  0  0  0  0  0  0  0  0  0  0
   -3.4278    4.0298   -0.4169 O   0  0  0  0  0  0  0  0  0  0  0  0
   -4.0284    1.8196   -0.9032 N   0  0  0  0  0  0  0  0  0  0  0  0
   -2.9337    1.2246   -0.1251 C   0  0  2  0  0  0  0  0  0  0  0  0
   -1.6144    1.3345   -0.8648 C   0  0  0  0  0  0  0  0  0  0  0  0
   -1.5447    2.0319   -1.9138 O   0  0  0  0  0  0  0  0  0  0  0  0
   -0.4472    0.6144   -0.4191 N   0  0  0  0  0  0  0  0  0  0  0  0
   -0.1095    0.4912    1.0070 C   0  0  0  0  0  0  0  0  0  0  0  0
    0.2580   -0.9582    1.3241 C   0  0  0  0  0  0  0  0  0  0  0  0
    1.2412   -1.4358    0.3469 N   0  0  0  0  0  0  0  0  0  0  0  0
    2.4940   -2.0101    0.7521 C   0  0  0  0  0  0  0  0  0  0  0  0
    2.9006   -3.0689    0.2005 O   0  0  0  0  0  0  0  0  0  0  0  0
    3.3541   -1.3429    1.7913 C   0  0  0  0  0  0  0  0  0  0  0  0
    4.7506   -0.9931    1.2477 C   0  0  0  0  0  0  0  0  0  0  0  0
    4.7383   -0.0380    0.0288 C   0  0  0  0  0  0  0  0  0  0  0  0
    6.1547    0.0952   -0.5439 C   0  0  0  0  0  0  0  0  0  0  0  0
    4.1915    1.3498    0.3909 C   0  0  0  0  0  0  0  0  0  0  0  0
    0.8982   -1.3324   -1.0736 C   0  0  0  0  0  0  0  0  0  0  0  0
    0.5259    0.1160   -1.4010 C   0  0  0  0  0  0  0  0  0  0  0  0
   -3.2490   -0.2272    0.1802 C   0  0  0  0  0  0  0  0  0  0  0  0
   -3.5480   -0.6262    1.4950 C   0  0  0  0  0  0  0  0  0  0  0  0
   -3.8125   -1.9680    1.7832 C   0  0  0  0  0  0  0  0  0  0  0  0
   -3.7851   -2.9228    0.7642 C   0  0  0  0  0  0  0  0  0  0  0  0
   -3.5014   -2.5369   -0.5490 C   0  0  0  0  0  0  0  0  0  0  0  0
   -3.4522   -3.8448   -1.9396 Br  0  0  0  0  0  0  0  0  0  0  0  0
   -3.2422   -1.1947   -0.8430 C   0  0  0  0  0  0  0  0  0  0  0  0
   -6.3113    3.4110   -1.3910 H   0  0  0  0  0  0  0  0  0  0  0  0
   -5.3533    4.8935   -1.7764 H   0  0  0  0  0  0  0  0  0  0  0  0
   -5.2543    3.4498   -2.8587 H   0  0  0  0  0  0  0  0  0  0  0  0
   -4.7304    1.1991   -1.3684 H   0  0  0  0  0  0  0  0  0  0  0  0
   -2.8426    1.7874    0.8291 H   0  0  0  0  0  0  0  0  0  0  0  0
    0.7550    1.1500    1.2342 H   0  0  0  0  0  0  0  0  0  0  0  0
   -0.9464    0.8049    1.6621 H   0  0  0  0  0  0  0  0  0  0  0  0
    0.6392   -1.0376    2.3643 H   0  0  0  0  0  0  0  0  0  0  0  0
   -0.6544   -1.5891    1.2544 H   0  0  0  0  0  0  0  0  0  0  0  0
    3.4688   -2.0388    2.6499 H   0  0  0  0  0  0  0  0  0  0  0  0
    2.8694   -0.4248    2.1807 H   0  0  0  0  0  0  0  0  0  0  0  0
    5.2621   -1.9405    0.9676 H   0  0  0  0  0  0  0  0  0  0  0  0
    5.3450   -0.5359    2.0690 H   0  0  0  0  0  0  0  0  0  0  0  0
    4.0973   -0.4679   -0.7714 H   0  0  0  0  0  0  0  0  0  0  0  0
    6.8440    0.5285    0.2126 H   0  0  0  0  0  0  0  0  0  0  0  0
    6.1484    0.7510   -1.4406 H   0  0  0  0  0  0  0  0  0  0  0  0
    6.5399   -0.8998   -0.8517 H   0  0  0  0  0  0  0  0  0  0  0  0
    4.7574    1.7862    1.2413 H   0  0  0  0  0  0  0  0  0  0  0  0
    4.2725    2.0347   -0.4804 H   0  0  0  0  0  0  0  0  0  0  0  0
    3.1183    1.2887    0.6606 H   0  0  0  0  0  0  0  0  0  0  0  0
    1.7507   -1.6431   -1.7166 H   0  0  0  0  0  0  0  0  0  0  0  0
    0.0345   -1.9980   -1.2915 H   0  0  0  0  0  0  0  0  0  0  0  0
    1.4368    0.7522   -1.3696 H   0  0  0  0  0  0  0  0  0  0  0  0
    0.1101    0.1505   -2.4316 H   0  0  0  0  0  0  0  0  0  0  0  0
   -3.5642    0.0972    2.3001 H   0  0  0  0  0  0  0  0  0  0  0  0
   -4.0314   -2.2694    2.7990 H   0  0  0  0  0  0  0  0  0  0  0  0
   -3.9842   -3.9612    0.9953 H   0  0  0  0  0  0  0  0  0  0  0  0
   -3.0204   -0.9067   -1.8633 H   0  0  0  0  0  0  0  0  0  0  0  0
  1  2  1  0
  2  3  2  0
  2  4  1  0
  4  5  1  0
  5  6  1  0
  6  7  2  0
  6  8  1  0
  8  9  1  0
  9 10  1  0
 10 11  1  0
 11 12  1  0
 12 13  2  0
 12 14  1  0
 14 15  1  0
 15 16  1  0
 16 17  1  0
 16 18  1  0
 11 19  1  0
 19 20  1  0
  5 21  1  0
 21 22  2  0
 22 23  1  0
 23 24  2  0
 24 25  1  0
 25 26  1  0
 25 27  2  0
 20  8  1  0
 27 21  1  0
  1 28  1  0
  1 29  1  0
  1 30  1  0
  4 31  1  0
  5 32  1  1
  9 33  1  0
  9 34  1  0
 10 35  1  0
 10 36  1  0
 14 37  1  0
 14 38  1  0
 15 39  1  0
 15 40  1  0
 16 41  1  0
 17 42  1  0
 17 43  1  0
 17 44  1  0
 18 45  1  0
 18 46  1  0
 18 47  1  0
 19 48  1  0
 19 49  1  0
 20 50  1  0
 20 51  1  0
 22 52  1  0
 23 53  1  0
 24 54  1  0
 27 55  1  0
M  END
$$$$
mol_5
     RDKit          3D

 53 54  0  0  0  0  0  0  0  0999 V2000
    2.0085    0.8373   -2.4659 C   0  0  0  0  0  0  0  0  0  0  0  0
    2.2436    1.0606   -1.0312 N   0  0  0  0  0  0  0  0  0  0  0  0
    1.1571    0.8294   -0.1027 C   0  0  0  0  0  0  0  0  0  0  0  0
    1.4035    0.7112    1.1297 O   0  0  0  0  0  0  0  0  0  0  0  0
   -0.2042    0.7279   -0.5589 N   0  0  0  0  0  0  0  0  0  0  0  0
   -1.2929    0.3209    0.3372 C   0  0  2  0  0  0  0  0  0  0  0  0
   -1.1536   -1.1785    0.6998 C   0  0  0  0  0  0  0  0  0  0  0  0
   -2.4974   -1.8722    0.9986 C   0  0  0  0  0  0  0  0  0  0  0  0
   -3.5175   -0.9062    1.6133 C   0  0  0  0  0  0  0  0  0  0  0  0
   -3.8208    0.3136    0.6848 C   0  0  2  0  0  0  0  0  0  0  0  0
   -5.1396    0.2451   -0.0177 N   0  0  0  0  0  0  0  0  0  0  0  0
   -5.3820   -1.0227   -0.7376 C   0  0  0  0  0  0  0  0  0  0  0  0
   -6.2595    0.5224    0.9029 C   0  0  0  0  0  0  0  0  0  0  0  0
   -2.6604    0.6080   -0.3075 C   0  0  0  0  0  0  0  0  0  0  0  0
    3.5849    1.3828   -0.4879 C   0  0  2  0  0  0  0  0  0  0  0  0
    4.4415    2.2735   -1.4146 C   0  0  0  0  0  0  0  0  0  0  0  0
    3.7070    3.3828   -1.8584 O   0  0  0  0  0  0  0  0  0  0  0  0
    4.3208    0.1150   -0.0972 C   0  0  0  0  0  0  0  0  0  0  0  0
    4.6638   -0.1130    1.2485 C   0  0  0  0  0  0  0  0  0  0  0  0
    5.3310   -1.2835    1.6220 C   0  0  0  0  0  0  0  0  0  0  0  0
    5.6620   -2.2405    0.6588 C   0  0  0  0  0  0  0  0  0  0  0  0
    6.4971   -3.7091    1.1304 Cl  0  0  0  0  0  0  0  0  0  0  0  0
    5.3250   -2.0259   -0.6804 C   0  0  0  0  0  0  0  0  0  0  0  0
    4.6581   -0.8567   -1.0583 C   0  0  0  0  0  0  0  0  0  0  0  0
    2.9421    0.8374   -3.0565 H   0  0  0  0  0  0  0  0  0  0  0  0
    1.3538    1.6382   -2.8681 H   0  0  0  0  0  0  0  0  0  0  0  0
    1.5266   -0.1519   -2.6190 H   0  0  0  0  0  0  0  0  0  0  0  0
   -0.4366    0.9873   -1.5430 H   0  0  0  0  0  0  0  0  0  0  0  0
   -1.2311    0.9271    1.2694 H   0  0  0  0  0  0  0  0  0  0  0  0
   -0.4934   -1.2690    1.5899 H   0  0  0  0  0  0  0  0  0  0  0  0
   -0.6589   -1.7272   -0.1321 H   0  0  0  0  0  0  0  0  0  0  0  0
   -2.3263   -2.7216    1.6947 H   0  0  0  0  0  0  0  0  0  0  0  0
   -2.9114   -2.2961    0.0592 H   0  0  0  0  0  0  0  0  0  0  0  0
   -4.4332   -1.4646    1.8899 H   0  0  0  0  0  0  0  0  0  0  0  0
   -3.0936   -0.5322    2.5719 H   0  0  0  0  0  0  0  0  0  0  0  0
   -3.8379    1.2027    1.3588 H   0  0  0  0  0  0  0  0  0  0  0  0
   -5.1599    1.0101   -0.7344 H   0  0  0  0  0  0  0  0  0  0  0  0
   -6.3024   -0.9397   -1.3565 H   0  0  0  0  0  0  0  0  0  0  0  0
   -5.5234   -1.8748   -0.0404 H   0  0  0  0  0  0  0  0  0  0  0  0
   -4.5532   -1.2606   -1.4333 H   0  0  0  0  0  0  0  0  0  0  0  0
   -6.3444   -0.2549    1.6914 H   0  0  0  0  0  0  0  0  0  0  0  0
   -6.1304    1.5134    1.3908 H   0  0  0  0  0  0  0  0  0  0  0  0
   -7.2213    0.5573    0.3449 H   0  0  0  0  0  0  0  0  0  0  0  0
   -2.7082    1.6769   -0.6129 H   0  0  0  0  0  0  0  0  0  0  0  0
   -2.7513   -0.0008   -1.2303 H   0  0  0  0  0  0  0  0  0  0  0  0
    3.4383    2.0047    0.4247 H   0  0  0  0  0  0  0  0  0  0  0  0
    5.3471    2.6169   -0.8632 H   0  0  0  0  0  0  0  0  0  0  0  0
    4.8134    1.7116   -2.2951 H   0  0  0  0  0  0  0  0  0  0  0  0
    3.6284    4.0000   -1.0848 H   0  0  0  0  0  0  0  0  0  0  0  0
    4.4147    0.6135    2.0118 H   0  0  0  0  0  0  0  0  0  0  0  0
    5.5883   -1.4457    2.6611 H   0  0  0  0  0  0  0  0  0  0  0  0
    5.5784   -2.7647   -1.4299 H   0  0  0  0  0  0  0  0  0  0  0  0
    4.4100   -0.7152   -2.1003 H   0  0  0  0  0  0  0  0  0  0  0  0
  1  2  1  0
  2  3  1  0
  3  4  2  0
  3  5  1  0
  5  6  1  0
  6  7  1  0
  7  8  1  0
  8  9  1  0
  9 10  1  0
 10 11  1  0
 11 12  1  0
 11 13  1  0
 10 14  1  0
  2 15  1  0
 15 16  1  0
 16 17  1  0
 15 18  1  0
 18 19  2  0
 19 20  1  0
 20 21  2  0
 21 22  1  0
 21 23  1  0
 23 24  2  0
 14  6  1  0
 24 18  1  0
  1 25  1  0
  1 26  1  0
  1 27  1  0
  5 28  1  0
  6 29  1  1
  7 30  1  0
  7 31  1  0
  8 32  1  0
  8 33  1  0
  9 34  1  0
  9 35  1  0
 10 36  1  1
 11 37  1  0
 12 38  1  0
 12 39  1  0
 12 40  1  0
 13 41  1  0
 13 42  1  0
 13 43  1  0
 14 44  1  0
 14 45  1  0
 15 46  1  1
 16 47  1  0
 16 48  1  0
 17 49  1  0
 19 50  1  0
 20 51  1  0
 23 52  1  0
 24 53  1  0
M  CHG  1  11   1
M  END
$$$$
mol_6
     RDKit          3D

 64 64  0  0  0  0  0  0  0  0999 V2000
   -4.0998    3.4539   -0.5836 C   0  0  0  0  0  0  0  0  0  0  0  0
   -3.5757    2.0104   -0.6077 C   0  0  0  0  0  0  0  0  0  0  0  0
   -3.6905    1.4580   -2.0375 C   0  0  0  0  0  0  0  0  0  0  0  0
   -4.3635    1.1343    0.4065 C   0  0  0  0  0  0  0  0  0  0  0  0
   -3.6379   -0.1387    0.9707 C   0  0  2  0  0  0  0  0  0  0  0  0
   -2.2596   -0.2671    0.4669 N   0  0  0  0  0  0  0  0  0  0  0  0
   -1.0974   -0.0220    1.2741 C   0  0  0  0  0  0  0  0  0  0  0  0
   -1.2191    0.3306    2.4792 O   0  0  0  0  0  0  0  0  0  0  0  0
    0.2073   -0.1712    0.7008 N   0  0  0  0  0  0  0  0  0  0  0  0
    1.4168    0.0789    1.4899 C   0  0  0  0  0  0  0  0  0  0  0  0
    2.7258   -0.0732    0.6824 C   0  0  1  0  0  0  0  0  0  0  0  0
    2.8903   -1.4896    0.0866 C   0  0  0  0  0  0  0  0  0  0  0  0
    4.2797   -1.6956   -0.4662 C   0  0  0  0  0  0  0  0  0  0  0  0
    5.3725   -1.8485    0.4042 C   0  0  0  0  0  0  0  0  0  0  0  0
    6.6623   -2.0222   -0.1069 C   0  0  0  0  0  0  0  0  0  0  0  0
    6.8709   -2.0473   -1.4885 C   0  0  0  0  0  0  0  0  0  0  0  0
    8.1225   -2.2145   -1.9821 F   0  0  0  0  0  0  0  0  0  0  0  0
    5.7889   -1.9001   -2.3613 C   0  0  0  0  0  0  0  0  0  0  0  0
    4.4973   -1.7270   -1.8545 C   0  0  0  0  0  0  0  0  0  0  0  0
    2.8451    0.9982   -0.3925 C   0  0  0  0  0  0  0  0  0  0  0  0
    2.0184    0.9867   -1.3462 O   0  0  0  0  0  0  0  0  0  0  0  0
    3.8804    2.0099   -0.3741 N   0  0  0  0  0  0  0  0  0  0  0  0
    3.9424    2.9726   -1.4796 C   0  0  0  0  0  0  0  0  0  0  0  0
    4.8613    2.0912    0.7139 C   0  0  0  0  0  0  0  0  0  0  0  0
   -4.4321   -1.4863    0.7969 C   0  0  0  0  0  0  0  0  0  0  0  0
   -3.6201   -2.6434    1.4262 C   0  0  0  0  0  0  0  0  0  0  0  0
   -4.6930   -1.8287   -0.6882 C   0  0  0  0  0  0  0  0  0  0  0  0
   -5.7876   -1.4120    1.5408 C   0  0  0  0  0  0  0  0  0  0  0  0
   -3.9535    3.8992    0.4236 H   0  0  0  0  0  0  0  0  0  0  0  0
   -3.5440    4.0790   -1.3150 H   0  0  0  0  0  0  0  0  0  0  0  0
   -5.1820    3.4828   -0.8352 H   0  0  0  0  0  0  0  0  0  0  0  0
   -2.5030    2.0614   -0.3235 H   0  0  0  0  0  0  0  0  0  0  0  0
   -3.3248    0.4163   -2.1017 H   0  0  0  0  0  0  0  0  0  0  0  0
   -3.0812    2.0731   -2.7335 H   0  0  0  0  0  0  0  0  0  0  0  0
   -4.7475    1.4765   -2.3803 H   0  0  0  0  0  0  0  0  0  0  0  0
   -5.3463    0.8879   -0.0406 H   0  0  0  0  0  0  0  0  0  0  0  0
   -4.6183    1.7682    1.2859 H   0  0  0  0  0  0  0  0  0  0  0  0
   -3.5821    0.0223    2.0711 H   0  0  0  0  0  0  0  0  0  0  0  0
   -2.1009   -0.5609   -0.5201 H   0  0  0  0  0  0  0  0  0  0  0  0
    0.2680   -0.4638   -0.2984 H   0  0  0  0  0  0  0  0  0  0  0  0
    1.3729    1.1093    1.9068 H   0  0  0  0  0  0  0  0  0  0  0  0
    1.4378   -0.6277    2.3484 H   0  0  0  0  0  0  0  0  0  0  0  0
    3.5322    0.0470    1.4318 H   0  0  0  0  0  0  0  0  0  0  0  0
    2.1382   -1.6641   -0.7118 H   0  0  0  0  0  0  0  0  0  0  0  0
    2.7041   -2.2537    0.8728 H   0  0  0  0  0  0  0  0  0  0  0  0
    5.2253   -1.8304    1.4770 H   0  0  0  0  0  0  0  0  0  0  0  0
    7.4996   -2.1365    0.5695 H   0  0  0  0  0  0  0  0  0  0  0  0
    5.9505   -1.9182   -3.4314 H   0  0  0  0  0  0  0  0  0  0  0  0
    3.6704   -1.6071   -2.5437 H   0  0  0  0  0  0  0  0  0  0  0  0
    2.9945    3.5491   -1.5276 H   0  0  0  0  0  0  0  0  0  0  0  0
    4.0906    2.4318   -2.4383 H   0  0  0  0  0  0  0  0  0  0  0  0
    4.7786    3.6927   -1.3584 H   0  0  0  0  0  0  0  0  0  0  0  0
    5.4682    1.1623    0.7442 H   0  0  0  0  0  0  0  0  0  0  0  0
    5.5588    2.9439    0.5783 H   0  0  0  0  0  0  0  0  0  0  0  0
    4.3386    2.2364    1.6826 H   0  0  0  0  0  0  0  0  0  0  0  0
   -2.6606   -2.8000    0.8885 H   0  0  0  0  0  0  0  0  0  0  0  0
   -3.3916   -2.4276    2.4923 H   0  0  0  0  0  0  0  0  0  0  0  0
   -4.1883   -3.5978    1.3796 H   0  0  0  0  0  0  0  0  0  0  0  0
   -5.2569   -2.7830   -0.7699 H   0  0  0  0  0  0  0  0  0  0  0  0
   -5.2950   -1.0462   -1.1917 H   0  0  0  0  0  0  0  0  0  0  0  0
   -3.7436   -1.9583   -1.2466 H   0  0  0  0  0  0  0  0  0  0  0  0
   -5.6365   -1.1358    2.6067 H   0  0  0  0  0  0  0  0  0  0  0  0
   -6.3055   -2.3954    1.5118 H   0  0  0  0  0  0  0  0  0  0  0  0
   -6.4723   -0.6704    1.0825 H   0  0  0  0  0  0  0  0  0  0  0  0
  1  2  1  0
  2  3  1  0
  2  4  1  0
  4  5  1  0
  5  6  1  0
  6  7  1  0
  7  8  2  0
  7  9  1  0
  9 10  1  0
 10 11  1  0
 11 12  1  0
 12 13  1  0
 13 14  2  0
 14 15  1  0
 15 16  2  0
 16 17  1  0
 16 18  1  0
 18 19  2  0
 11 20  1  0
 20 21  2  0
 20 22  1  0
 22 23  1  0
 22 24  1  0
  5 25  1  0
 25 26  1  0
 25 27  1  0
 25 28  1  0
 19 13  1  0
  1 29  1  0
  1 30  1  0
  1 31  1  0
  2 32  1  0
  3 33  1  0
  3 34  1  0
  3 35  1  0
  4 36  1  0
  4 37  1  0
  5 38  1  1
  6 39  1  0
  9 40  1  0
 10 41  1  0
 10 42  1  0
 11 43  1  1
 12 44  1  0
 12 45  1  0
 14 46  1  0
 15 47  1  0
 18 48  1  0
 19 49  1  0
 23 50  1  0
 23 51  1  0
 23 52  1  0
 24 53  1  0
 24 54  1  0
 24 55  1  0
 26 56  1  0
 26 57  1  0
 26 58  1  0
 27 59  1  0
 27 60  1  0
 27 61  1  0
 28 62  1  0
 28 63  1  0
 28 64  1  0
M  END
$$$$
mol_7
     RDKit          3D

 37 37  0  0  0  0  0  0  0  0999 V2000
    5.2211   -1.0839   -0.6988 C   0  0  0  0  0  0  0  0  0  0  0  0
    4.2797   -0.3332   -0.6386 C   0  0  0  0  0  0  0  0  0  0  0  0
    3.1314    0.5809   -0.5650 C   0  0  2  0  0  0  0  0  0  0  0  0
    3.2592    1.4834    0.6722 C   0  0  0  0  0  0  0  0  0  0  0  0
    2.2111    2.5941    0.6724 C   0  0  0  0  0  0  0  0  0  0  0  0
    1.8987   -0.2080   -0.4946 N   0  0  0  0  0  0  0  0  0  0  0  0
    0.8399   -0.0995   -1.4580 C   0  0  0  0  0  0  0  0  0  0  0  0
    0.8665    0.8020   -2.3391 O   0  0  0  0  0  0  0  0  0  0  0  0
   -0.3314   -1.0387   -1.4015 C   0  0  0  0  0  0  0  0  0  0  0  0
   -1.5182   -0.4303   -0.6353 C   0  0  1  0  0  0  0  0  0  0  0  0
   -2.6766   -1.3217   -0.7388 N   0  0  0  0  0  0  0  0  0  0  0  0
   -3.9456   -0.9069   -1.2648 C   0  0  0  0  0  0  0  0  0  0  0  0
   -5.0758   -1.8817   -1.3299 C   0  0  0  0  0  0  0  0  0  0  0  0
   -4.1249    0.2792   -1.6526 O   0  0  0  0  0  0  0  0  0  0  0  0
   -1.1911   -0.2131    0.8178 C   0  0  0  0  0  0  0  0  0  0  0  0
   -1.2210    1.0071    1.4812 C   0  0  0  0  0  0  0  0  0  0  0  0
   -0.8712    0.9105    2.8331 C   0  0  0  0  0  0  0  0  0  0  0  0
   -0.5755   -0.3831    3.2424 C   0  0  0  0  0  0  0  0  0  0  0  0
   -0.7487   -1.4071    1.9205 S   0  0  0  0  0  0  0  0  0  0  0  0
    6.0472   -1.7430   -0.7508 H   0  0  0  0  0  0  0  0  0  0  0  0
    3.1506    1.2118   -1.4798 H   0  0  0  0  0  0  0  0  0  0  0  0
    3.1500    0.8776    1.5989 H   0  0  0  0  0  0  0  0  0  0  0  0
    4.2654    1.9582    0.6880 H   0  0  0  0  0  0  0  0  0  0  0  0
    2.3301    3.2177    1.5833 H   0  0  0  0  0  0  0  0  0  0  0  0
    1.1893    2.1646    0.6700 H   0  0  0  0  0  0  0  0  0  0  0  0
    2.3356    3.2419   -0.2212 H   0  0  0  0  0  0  0  0  0  0  0  0
    1.7950   -0.8949    0.2867 H   0  0  0  0  0  0  0  0  0  0  0  0
   -0.0228   -2.0010   -0.9380 H   0  0  0  0  0  0  0  0  0  0  0  0
   -0.6518   -1.2667   -2.4415 H   0  0  0  0  0  0  0  0  0  0  0  0
   -1.7533    0.5545   -1.0969 H   0  0  0  0  0  0  0  0  0  0  0  0
   -2.5785   -2.3065   -0.4008 H   0  0  0  0  0  0  0  0  0  0  0  0
   -5.9376   -1.4458   -1.8787 H   0  0  0  0  0  0  0  0  0  0  0  0
   -5.3975   -2.1438   -0.3006 H   0  0  0  0  0  0  0  0  0  0  0  0
   -4.7452   -2.8018   -1.8552 H   0  0  0  0  0  0  0  0  0  0  0  0
   -1.4818    1.9423    1.0033 H   0  0  0  0  0  0  0  0  0  0  0  0
   -0.8362    1.7636    3.4973 H   0  0  0  0  0  0  0  0  0  0  0  0
   -0.2860   -0.6786    4.2417 H   0  0  0  0  0  0  0  0  0  0  0  0
  1  2  3  0
  2  3  1  0
  3  4  1  0
  4  5  1  0
  3  6  1  0
  6  7  1  0
  7  8  2  0
  7  9  1  0
  9 10  1  0
 10 11  1  0
 11 12  1  0
 12 13  1  0
 12 14  2  0
 10 15  1  0
 15 16  2  0
 16 17  1  0
 17 18  2  0
 18 19  1  0
 19 15  1  0
  1 20  1  0
  3 21  1  6
  4 22  1  0
  4 23  1  0
  5 24  1  0
  5 25  1  0
  5 26  1  0
  6 27  1  0
  9 28  1  0
  9 29  1  0
 10 30  1  6
 11 31  1  0
 13 32  1  0
 13 33  1  0
 13 34  1  0
 16 35  1  0
 17 36  1  0
 18 37  1  0
M  END
$$$$
mol_8
     RDKit          3D

 46 46  0  0  0  0  0  0  0  0999 V2000
   -2.0807    2.0533   -4.2865 C   0  0  0  0  0  0  0  0  0  0  0  0
   -1.8916    0.7129   -3.8899 O   0  0  0  0  0  0  0  0  0  0  0  0
   -2.7213    0.4005   -2.7854 C   0  0  0  0  0  0  0  0  0  0  0  0
   -1.9467    0.5605   -1.4670 C   0  0  1  0  0  0  0  0  0  0  0  0
   -2.8282    0.1680   -0.2666 C   0  0  0  0  0  0  0  0  0  0  0  0
   -2.0960    0.3409    1.0425 C   0  0  0  0  0  0  0  0  0  0  0  0
   -1.7626   -0.7777    1.8257 C   0  0  0  0  0  0  0  0  0  0  0  0
   -1.0766   -0.6138    3.0332 C   0  0  0  0  0  0  0  0  0  0  0  0
   -0.7185    0.6645    3.4681 C   0  0  0  0  0  0  0  0  0  0  0  0
   -1.0508    1.7825    2.6991 C   0  0  0  0  0  0  0  0  0  0  0  0
   -1.7412    1.6243    1.4937 C   0  0  0  0  0  0  0  0  0  0  0  0
   -0.7424   -0.2770   -1.4968 N   0  0  0  0  0  0  0  0  0  0  0  0
    0.5740    0.2366   -1.2505 C   0  0  0  0  0  0  0  0  0  0  0  0
    0.7423    1.4624   -1.0055 O   0  0  0  0  0  0  0  0  0  0  0  0
    1.6964   -0.6556   -1.2675 N   0  0  0  0  0  0  0  0  0  0  0  0
    3.0382   -0.2494   -0.8539 C   0  0  0  0  0  0  0  0  0  0  0  0
    3.6549   -1.2612    0.1279 C   0  0  0  0  0  0  0  0  0  0  0  0
    2.9264   -1.4274    1.4877 C   0  0  0  0  0  0  0  0  0  0  0  0
    1.6570   -2.2842    1.3844 C   0  0  0  0  0  0  0  0  0  0  0  0
    2.6301   -0.0898    2.1792 C   0  0  0  0  0  0  0  0  0  0  0  0
   -3.1038    2.2030   -4.6964 H   0  0  0  0  0  0  0  0  0  0  0  0
   -1.3571    2.2887   -5.0937 H   0  0  0  0  0  0  0  0  0  0  0  0
   -1.8912    2.7597   -3.4486 H   0  0  0  0  0  0  0  0  0  0  0  0
   -3.6631    1.0002   -2.7565 H   0  0  0  0  0  0  0  0  0  0  0  0
   -3.0366   -0.6601   -2.8900 H   0  0  0  0  0  0  0  0  0  0  0  0
   -1.6757    1.6328   -1.3636 H   0  0  0  0  0  0  0  0  0  0  0  0
   -3.1618   -0.8867   -0.3871 H   0  0  0  0  0  0  0  0  0  0  0  0
   -3.7421    0.8011   -0.2484 H   0  0  0  0  0  0  0  0  0  0  0  0
   -2.0234   -1.7764    1.4987 H   0  0  0  0  0  0  0  0  0  0  0  0
   -0.8174   -1.4791    3.6293 H   0  0  0  0  0  0  0  0  0  0  0  0
   -0.1826    0.7884    4.4001 H   0  0  0  0  0  0  0  0  0  0  0  0
   -0.7745    2.7726    3.0379 H   0  0  0  0  0  0  0  0  0  0  0  0
   -1.9974    2.5006    0.9117 H   0  0  0  0  0  0  0  0  0  0  0  0
   -0.8550   -1.3051   -1.6489 H   0  0  0  0  0  0  0  0  0  0  0  0
    1.5609   -1.6248   -1.6342 H   0  0  0  0  0  0  0  0  0  0  0  0
    3.6820   -0.1979   -1.7577 H   0  0  0  0  0  0  0  0  0  0  0  0
    3.0372    0.7643   -0.4014 H   0  0  0  0  0  0  0  0  0  0  0  0
    4.6956   -0.9286    0.3359 H   0  0  0  0  0  0  0  0  0  0  0  0
    3.7398   -2.2503   -0.3732 H   0  0  0  0  0  0  0  0  0  0  0  0
    3.6265   -1.9846    2.1496 H   0  0  0  0  0  0  0  0  0  0  0  0
    1.8641   -3.2228    0.8281 H   0  0  0  0  0  0  0  0  0  0  0  0
    1.3076   -2.5597    2.4021 H   0  0  0  0  0  0  0  0  0  0  0  0
    0.8369   -1.7367    0.8799 H   0  0  0  0  0  0  0  0  0  0  0  0
    1.8344    0.4691    1.6426 H   0  0  0  0  0  0  0  0  0  0  0  0
    2.2852   -0.2709    3.2196 H   0  0  0  0  0  0  0  0  0  0  0  0
    3.5488    0.5329    2.2216 H   0  0  0  0  0  0  0  0  0  0  0  0
  1  2  1  0
  2  3  1  0
  3  4  1  0
  4  5  1  0
  5  6  1  0
  6  7  2  0
  7  8  1  0
  8  9  2  0
  9 10  1  0
 10 11  2  0
  4 12  1  0
 12 13  1  0
 13 14  2  0
 13 15  1  0
 15 16  1  0
 16 17  1  0
 17 18  1  0
 18 19  1  0
 18 20  1  0
 11  6  1  0
  1 21  1  0
  1 22  1  0
  1 23  1  0
  3 24  1  0
  3 25  1  0
  4 26  1  1
  5 27  1  0
  5 28  1  0
  7 29  1  0
  8 30  1  0
  9 31  1  0
 10 32  1  0
 11 33  1  0
 12 34  1  0
 15 35  1  0
 16 36  1  0
 16 37  1  0
 17 38  1  0
 17 39  1  0
 18 40  1  0
 19 41  1  0
 19 42  1  0
 19 43  1  0
 20 44  1  0
 20 45  1  0
 20 46  1  0
M  END
$$$$
mol_9
     RDKit          3D

 62 63  0  0  0  0  0  0  0  0999 V2000
   -5.7421    3.7208    0.9181 C   0  0  0  0  0  0  0  0  0  0  0  0
   -5.3179    2.5617    1.8142 C   0  0  0  0  0  0  0  0  0  0  0  0
   -4.3712    1.7249    1.1493 O   0  0  0  0  0  0  0  0  0  0  0  0
   -4.6491    0.8464    0.0858 C   0  0  0  0  0  0  0  0  0  0  0  0
   -3.5660    0.2392   -0.5935 C   0  0  0  0  0  0  0  0  0  0  0  0
   -2.1430    0.5508   -0.1392 C   0  0  2  0  0  0  0  0  0  0  0  0
   -1.0349    0.2170   -1.1620 C   0  0  0  0  0  0  0  0  0  0  0  0
    0.3018    0.7016   -0.6781 C   0  0  0  0  0  0  0  0  0  0  0  0
    0.5465    1.9387   -0.6721 O   0  0  0  0  0  0  0  0  0  0  0  0
    1.2849   -0.2367   -0.2161 N   0  0  0  0  0  0  0  0  0  0  0  0
    2.5715    0.1877    0.3507 C   0  0  1  0  0  0  0  0  0  0  0  0
    2.9823   -0.7081    1.5200 C   0  0  0  0  0  0  0  0  0  0  0  0
    4.1942   -1.2119    0.7370 C   0  0  1  0  0  0  0  0  0  0  0  0
    4.0425   -2.5897    0.4394 O   0  0  0  0  0  0  0  0  0  0  0  0
    5.3096   -3.1800    0.2529 C   0  0  0  0  0  0  0  0  0  0  0  0
    3.8229   -0.2721   -0.4453 C   0  0  0  0  0  0  0  0  0  0  0  0
    4.8499    0.8838   -0.6822 C   0  0  0  0  0  0  0  0  0  0  0  0
    5.4418    1.5630    0.5622 C   0  0  0  0  0  0  0  0  0  0  0  0
    3.5360   -1.0417   -1.7761 C   0  0  0  0  0  0  0  0  0  0  0  0
    3.0718   -0.1465   -2.9297 C   0  0  0  0  0  0  0  0  0  0  0  0
   -1.8684   -0.0879    1.1543 N   0  0  0  0  0  0  0  0  0  0  0  0
   -1.8476   -1.5082    1.3639 C   0  0  0  0  0  0  0  0  0  0  0  0
   -1.4034   -2.0561    2.6801 C   0  0  0  0  0  0  0  0  0  0  0  0
   -2.1785   -2.3008    0.4413 O   0  0  0  0  0  0  0  0  0  0  0  0
   -3.8388   -0.6686   -1.6401 C   0  0  0  0  0  0  0  0  0  0  0  0
   -5.1532   -0.9493   -2.0147 C   0  0  0  0  0  0  0  0  0  0  0  0
   -6.2154   -0.3425   -1.3497 C   0  0  0  0  0  0  0  0  0  0  0  0
   -5.9702    0.5468   -0.3039 C   0  0  0  0  0  0  0  0  0  0  0  0
   -6.2768    3.3504    0.0199 H   0  0  0  0  0  0  0  0  0  0  0  0
   -4.8477    4.2939    0.5946 H   0  0  0  0  0  0  0  0  0  0  0  0
   -6.4187    4.3979    1.4805 H   0  0  0  0  0  0  0  0  0  0  0  0
   -4.8312    2.9833    2.7188 H   0  0  0  0  0  0  0  0  0  0  0  0
   -6.1967    1.9747    2.1547 H   0  0  0  0  0  0  0  0  0  0  0  0
   -2.0950    1.6541    0.0067 H   0  0  0  0  0  0  0  0  0  0  0  0
   -0.9798   -0.8770   -1.3359 H   0  0  0  0  0  0  0  0  0  0  0  0
   -1.2596    0.7032   -2.1359 H   0  0  0  0  0  0  0  0  0  0  0  0
    1.0484   -1.2545   -0.2429 H   0  0  0  0  0  0  0  0  0  0  0  0
    2.5723    1.2624    0.6337 H   0  0  0  0  0  0  0  0  0  0  0  0
    2.2490   -1.5091    1.7637 H   0  0  0  0  0  0  0  0  0  0  0  0
    3.2780   -0.1153    2.4131 H   0  0  0  0  0  0  0  0  0  0  0  0
    5.1310   -0.9669    1.2862 H   0  0  0  0  0  0  0  0  0  0  0  0
    5.1680   -4.2100   -0.1340 H   0  0  0  0  0  0  0  0  0  0  0  0
    5.9226   -2.6200   -0.4894 H   0  0  0  0  0  0  0  0  0  0  0  0
    5.8517   -3.2513    1.2213 H   0  0  0  0  0  0  0  0  0  0  0  0
    5.6969    0.4996   -1.2896 H   0  0  0  0  0  0  0  0  0  0  0  0
    4.3507    1.6759   -1.2793 H   0  0  0  0  0  0  0  0  0  0  0  0
    5.9230    2.5172    0.2600 H   0  0  0  0  0  0  0  0  0  0  0  0
    4.6685    1.7972    1.3195 H   0  0  0  0  0  0  0  0  0  0  0  0
    6.2318    0.9335    1.0198 H   0  0  0  0  0  0  0  0  0  0  0  0
    4.4655   -1.5540   -2.1050 H   0  0  0  0  0  0  0  0  0  0  0  0
    2.7792   -1.8396   -1.6229 H   0  0  0  0  0  0  0  0  0  0  0  0
    3.9143    0.4696   -3.3073 H   0  0  0  0  0  0  0  0  0  0  0  0
    2.7118   -0.7805   -3.7676 H   0  0  0  0  0  0  0  0  0  0  0  0
    2.2472    0.5232   -2.6168 H   0  0  0  0  0  0  0  0  0  0  0  0
   -1.6434    0.5327    1.9648 H   0  0  0  0  0  0  0  0  0  0  0  0
   -1.5980   -3.1489    2.7347 H   0  0  0  0  0  0  0  0  0  0  0  0
   -1.9559   -1.5528    3.5010 H   0  0  0  0  0  0  0  0  0  0  0  0
   -0.3160   -1.8747    2.8058 H   0  0  0  0  0  0  0  0  0  0  0  0
   -3.0466   -1.1702   -2.1763 H   0  0  0  0  0  0  0  0  0  0  0  0
   -5.3483   -1.6447   -2.8212 H   0  0  0  0  0  0  0  0  0  0  0  0
   -7.2333   -0.5675   -1.6412 H   0  0  0  0  0  0  0  0  0  0  0  0
   -6.8186    0.9860    0.2001 H   0  0  0  0  0  0  0  0  0  0  0  0
  1  2  1  0
  2  3  1  0
  3  4  1  0
  4  5  2  0
  5  6  1  0
  6  7  1  0
  7  8  1  0
  8  9  2  0
  8 10  1  0
 10 11  1  0
 11 12  1  0
 12 13  1  0
 13 14  1  0
 14 15  1  0
 13 16  1  0
 16 17  1  0
 17 18  1  0
 16 19  1  0
 19 20  1  0
  6 21  1  0
 21 22  1  0
 22 23  1  0
 22 24  2  0
  5 25  1  0
 25 26  2  0
 26 27  1  0
 27 28  2  0
 28  4  1  0
 16 11  1  0
  1 29  1  0
  1 30  1  0
  1 31  1  0
  2 32  1  0
  2 33  1  0
  6 34  1  1
  7 35  1  0
  7 36  1  0
 10 37  1  0
 11 38  1  1
 12 39  1  0
 12 40  1  0
 13 41  1  1
 15 42  1  0
 15 43  1  0
 15 44  1  0
 17 45  1  0
 17 46  1  0
 18 47  1  0
 18 48  1  0
 18 49  1  0
 19 50  1  0
 19 51  1  0
 20 52  1  0
 20 53  1  0
 20 54  1  0
 21 55  1  0
 23 56  1  0
 23 57  1  0
 23 58  1  0
 25 59  1  0
 26 60  1  0
 27 61  1  0
 28 62  1  0
M  END
$$$$
mol_10
     RDKit          3D

 53 54  0  0  0  0  0  0  0  0999 V2000
   -3.4726   -0.5385    2.0318 C   0  0  0  0  0  0  0  0  0  0  0  0
   -4.0568   -0.7046    0.6041 C   0  0  0  0  0  0  0  0  0  0  0  0
   -4.9678    0.5125    0.3286 C   0  0  0  0  0  0  0  0  0  0  0  0
   -4.9492   -1.9686    0.6331 C   0  0  0  0  0  0  0  0  0  0  0  0
   -2.8601   -0.8590   -0.4364 C   0  0  1  0  0  0  0  0  0  0  0  0
   -3.1594   -1.6301   -1.7582 C   0  0  0  0  0  0  0  0  0  0  0  0
   -3.7606   -0.7602   -2.8629 C   0  0  0  0  0  0  0  0  0  0  0  0
   -2.8553    0.4317   -3.1670 C   0  0  0  0  0  0  0  0  0  0  0  0
   -2.6140    1.2753   -1.9133 C   0  0  0  0  0  0  0  0  0  0  0  0
   -2.0569    0.4546   -0.7262 C   0  0  2  0  0  0  0  0  0  0  0  0
   -0.6455    0.1291   -0.9776 N   0  0  0  0  0  0  0  0  0  0  0  0
    0.4279    0.5593   -0.1272 C   0  0  0  0  0  0  0  0  0  0  0  0
    0.1906    1.2529    0.8996 O   0  0  0  0  0  0  0  0  0  0  0  0
    1.7760    0.1942   -0.4473 N   0  0  0  0  0  0  0  0  0  0  0  0
    2.8992    0.6071    0.3938 C   0  0  0  0  0  0  0  0  0  0  0  0
    4.2241    0.0767   -0.1650 C   0  0  0  0  0  0  0  0  0  0  0  0
    5.3818    0.4772    0.7132 C   0  0  0  0  0  0  0  0  0  0  0  0
    5.8019    1.8172    0.7614 C   0  0  0  0  0  0  0  0  0  0  0  0
    6.8780    2.1905    1.5721 C   0  0  0  0  0  0  0  0  0  0  0  0
    7.2766    3.4858    1.6142 F   0  0  0  0  0  0  0  0  0  0  0  0
    7.5446    1.2301    2.3378 C   0  0  0  0  0  0  0  0  0  0  0  0
    7.1392   -0.1077    2.2950 C   0  0  0  0  0  0  0  0  0  0  0  0
    7.8137   -1.0545    3.0627 O   0  0  0  0  0  0  0  0  0  0  0  0
    6.0601   -0.4840    1.4821 C   0  0  0  0  0  0  0  0  0  0  0  0
   -2.8440    0.3705    2.1185 H   0  0  0  0  0  0  0  0  0  0  0  0
   -2.8509   -1.4169    2.3100 H   0  0  0  0  0  0  0  0  0  0  0  0
   -4.2852   -0.4483    2.7854 H   0  0  0  0  0  0  0  0  0  0  0  0
   -4.4214    1.4683    0.4633 H   0  0  0  0  0  0  0  0  0  0  0  0
   -5.4040    0.4766   -0.6860 H   0  0  0  0  0  0  0  0  0  0  0  0
   -5.8164    0.5307    1.0468 H   0  0  0  0  0  0  0  0  0  0  0  0
   -5.6664   -1.9315    1.4820 H   0  0  0  0  0  0  0  0  0  0  0  0
   -4.3301   -2.8843    0.7498 H   0  0  0  0  0  0  0  0  0  0  0  0
   -5.5572   -2.0509   -0.2930 H   0  0  0  0  0  0  0  0  0  0  0  0
   -2.1423   -1.5357    0.0828 H   0  0  0  0  0  0  0  0  0  0  0  0
   -2.2013   -2.0431   -2.1451 H   0  0  0  0  0  0  0  0  0  0  0  0
   -3.7960   -2.5210   -1.5993 H   0  0  0  0  0  0  0  0  0  0  0  0
   -4.7769   -0.4187   -2.5879 H   0  0  0  0  0  0  0  0  0  0  0  0
   -3.8638   -1.3726   -3.7847 H   0  0  0  0  0  0  0  0  0  0  0  0
   -1.8870    0.0751   -3.5799 H   0  0  0  0  0  0  0  0  0  0  0  0
   -3.3363    1.0642   -3.9440 H   0  0  0  0  0  0  0  0  0  0  0  0
   -1.8978    2.0888   -2.1616 H   0  0  0  0  0  0  0  0  0  0  0  0
   -3.5627    1.7743   -1.6336 H   0  0  0  0  0  0  0  0  0  0  0  0
   -2.1155    1.1188    0.1574 H   0  0  0  0  0  0  0  0  0  0  0  0
   -0.4055   -0.4641   -1.8029 H   0  0  0  0  0  0  0  0  0  0  0  0
    1.9479   -0.3797   -1.3041 H   0  0  0  0  0  0  0  0  0  0  0  0
    2.9281    1.7174    0.4396 H   0  0  0  0  0  0  0  0  0  0  0  0
    2.7496    0.2110    1.4223 H   0  0  0  0  0  0  0  0  0  0  0  0
    4.3874    0.4745   -1.1904 H   0  0  0  0  0  0  0  0  0  0  0  0
    4.1619   -1.0312   -0.2426 H   0  0  0  0  0  0  0  0  0  0  0  0
    5.2974    2.5700    0.1683 H   0  0  0  0  0  0  0  0  0  0  0  0
    8.3775    1.5236    2.9641 H   0  0  0  0  0  0  0  0  0  0  0  0
    7.5454   -2.0316    3.0546 H   0  0  0  0  0  0  0  0  0  0  0  0
    5.7498   -1.5214    1.4550 H   0  0  0  0  0  0  0  0  0  0  0  0
  1  2  1  0
  2  3  1  0
  2  4  1  0
  2  5  1  0
  5  6  1  0
  6  7  1  0
  7  8  1  0
  8  9  1  0
  9 10  1  0
 10 11  1  0
 11 12  1  0
 12 13  2  0
 12 14  1  0
 14 15  1  0
 15 16  1  0
 16 17  1  0
 17 18  2  0
 18 19  1  0
 19 20  1  0
 19 21  2  0
 21 22  1  0
 22 23  1  0
 22 24  2  0
 10  5  1  0
 24 17  1  0
  1 25  1  0
  1 26  1  0
  1 27  1  0
  3 28  1  0
  3 29  1  0
  3 30  1  0
  4 31  1  0
  4 32  1  0
  4 33  1  0
  5 34  1  1
  6 35  1  0
  6 36  1  0
  7 37  1  0
  7 38  1  0
  8 39  1  0
  8 40  1  0
  9 41  1  0
  9 42  1  0
 10 43  1  1
 11 44  1  0
 14 45  1  0
 15 46  1  0
 15 47  1  0
 16 48  1  0
 16 49  1  0
 18 50  1  0
 21 51  1  0
 23 52  1  0
 24 53  1  0
M  END
$$$$
mol_11
     RDKit          3D

 41 42  0  0  0  0  0  0  0  0999 V2000
    4.3735    1.7822   -1.5817 C   0  0  0  0  0  0  0  0  0  0  0  0
    3.3954    0.6577   -1.2424 C   0  0  0  0  0  0  0  0  0  0  0  0
    2.5795    0.9210    0.0443 C   0  0  1  0  0  0  0  0  0  0  0  0
    1.5324   -0.0995    0.1692 N   0  0  0  0  0  0  0  0  0  0  0  0
    0.3317   -0.0699   -0.6170 C   0  0  0  0  0  0  0  0  0  0  0  0
    0.0899    0.9177   -1.3640 O   0  0  0  0  0  0  0  0  0  0  0  0
   -0.6148   -1.1521   -0.5312 N   0  0  0  0  0  0  0  0  0  0  0  0
   -0.1239   -2.5208   -0.7277 C   0  0  0  0  0  0  0  0  0  0  0  0
   -0.8523   -3.4827    0.2055 C   0  0  0  0  0  0  0  0  0  0  0  0
   -2.2983   -3.3033    0.1208 N   0  0  0  0  0  0  0  0  0  0  0  0
   -2.9000   -2.0774   -0.3130 C   0  0  0  0  0  0  0  0  0  0  0  0
   -4.1557   -2.0007   -0.3920 O   0  0  0  0  0  0  0  0  0  0  0  0
   -2.0568   -0.8862   -0.7039 C   0  0  1  0  0  0  0  0  0  0  0  0
   -2.4997    0.3406    0.0844 C   0  0  0  0  0  0  0  0  0  0  0  0
   -2.3128    0.4550    1.4850 C   0  0  0  0  0  0  0  0  0  0  0  0
   -1.5533   -0.8111    2.4421 Cl  0  0  0  0  0  0  0  0  0  0  0  0
   -2.7365    1.6098    2.1547 C   0  0  0  0  0  0  0  0  0  0  0  0
   -3.3461    2.6509    1.4538 C   0  0  0  0  0  0  0  0  0  0  0  0
   -3.5387    2.5462    0.0769 C   0  0  0  0  0  0  0  0  0  0  0  0
   -3.1208    1.4008   -0.6040 C   0  0  0  0  0  0  0  0  0  0  0  0
    3.4493    0.9296    1.3170 C   0  0  0  0  0  0  0  0  0  0  0  0
    4.2545   -0.1948    1.3756 F   0  0  0  0  0  0  0  0  0  0  0  0
    4.2370    2.0652    1.3675 F   0  0  0  0  0  0  0  0  0  0  0  0
    3.8612    2.7674   -1.5569 H   0  0  0  0  0  0  0  0  0  0  0  0
    5.2281    1.7854   -0.8745 H   0  0  0  0  0  0  0  0  0  0  0  0
    4.7792    1.6219   -2.6029 H   0  0  0  0  0  0  0  0  0  0  0  0
    2.6941    0.5554   -2.0985 H   0  0  0  0  0  0  0  0  0  0  0  0
    3.9501   -0.3018   -1.1582 H   0  0  0  0  0  0  0  0  0  0  0  0
    2.0923    1.9191   -0.0290 H   0  0  0  0  0  0  0  0  0  0  0  0
    1.6282   -0.8489    0.8919 H   0  0  0  0  0  0  0  0  0  0  0  0
    0.9682   -2.5952   -0.5370 H   0  0  0  0  0  0  0  0  0  0  0  0
   -0.3016   -2.8219   -1.7831 H   0  0  0  0  0  0  0  0  0  0  0  0
   -0.5228   -3.3188    1.2531 H   0  0  0  0  0  0  0  0  0  0  0  0
   -0.5948   -4.5251   -0.0800 H   0  0  0  0  0  0  0  0  0  0  0  0
   -2.9149   -4.0739    0.4638 H   0  0  0  0  0  0  0  0  0  0  0  0
   -2.2343   -0.7206   -1.7897 H   0  0  0  0  0  0  0  0  0  0  0  0
   -2.5930    1.7016    3.2239 H   0  0  0  0  0  0  0  0  0  0  0  0
   -3.6705    3.5399    1.9792 H   0  0  0  0  0  0  0  0  0  0  0  0
   -4.0128    3.3543   -0.4650 H   0  0  0  0  0  0  0  0  0  0  0  0
   -3.2816    1.3441   -1.6734 H   0  0  0  0  0  0  0  0  0  0  0  0
    2.7912    0.9389    2.2122 H   0  0  0  0  0  0  0  0  0  0  0  0
  1  2  1  0
  2  3  1  0
  3  4  1  0
  4  5  1  0
  5  6  2  0
  5  7  1  0
  7  8  1  0
  8  9  1  0
  9 10  1  0
 10 11  1  0
 11 12  2  0
 11 13  1  0
 13 14  1  0
 14 15  2  0
 15 16  1  0
 15 17  1  0
 17 18  2  0
 18 19  1  0
 19 20  2  0
  3 21  1  0
 21 22  1  0
 21 23  1  0
 13  7  1  0
 20 14  1  0
  1 24  1  0
  1 25  1  0
  1 26  1  0
  2 27  1  0
  2 28  1  0
  3 29  1  6
  4 30  1  0
  8 31  1  0
  8 32  1  0
  9 33  1  0
  9 34  1  0
 10 35  1  0
 13 36  1  6
 17 37  1  0
 18 38  1  0
 19 39  1  0
 20 40  1  0
 21 41  1  0
M  END
$$$$
mol_12
     RDKit          3D

 50 50  0  0  0  0  0  0  0  0999 V2000
   -5.8752    2.0905    0.7168 C   0  0  0  0  0  0  0  0  0  0  0  0
   -4.6931    1.3208    1.3059 C   0  0  0  0  0  0  0  0  0  0  0  0
   -3.8985    0.5182    0.2537 C   0  0  1  0  0  0  0  0  0  0  0  0
   -2.6829   -0.0101    0.8804 N   0  0  0  0  0  0  0  0  0  0  0  0
   -1.3614    0.2699    0.3978 C   0  0  0  0  0  0  0  0  0  0  0  0
   -1.1891    1.0996   -0.5361 O   0  0  0  0  0  0  0  0  0  0  0  0
   -0.2374   -0.4131    0.9769 N   0  0  0  0  0  0  0  0  0  0  0  0
    1.1069   -0.4557    0.3799 C   0  0  1  0  0  0  0  0  0  0  0  0
    1.0656   -0.9717   -1.0760 C   0  0  0  0  0  0  0  0  0  0  0  0
    0.2820   -2.2564   -1.1943 C   0  0  0  0  0  0  0  0  0  0  0  0
    0.7741   -3.4418   -0.6220 C   0  0  0  0  0  0  0  0  0  0  0  0
    0.0390   -4.6276   -0.7154 C   0  0  0  0  0  0  0  0  0  0  0  0
   -1.1899   -4.6397   -1.3808 C   0  0  0  0  0  0  0  0  0  0  0  0
   -1.6842   -3.4668   -1.9574 C   0  0  0  0  0  0  0  0  0  0  0  0
   -0.9511   -2.2796   -1.8693 C   0  0  0  0  0  0  0  0  0  0  0  0
    1.7989    0.8844    0.4692 C   0  0  0  0  0  0  0  0  0  0  0  0
    1.1739    1.8996    0.8829 O   0  0  0  0  0  0  0  0  0  0  0  0
    3.1823    0.9981    0.1086 N   0  0  0  0  0  0  0  0  0  0  0  0
    3.8728    2.2874    0.1323 C   0  0  0  0  0  0  0  0  0  0  0  0
    5.3293    2.1373   -0.3023 C   0  0  0  0  0  0  0  0  0  0  0  0
    5.9539    3.4027   -0.2668 O   0  0  0  0  0  0  0  0  0  0  0  0
    7.2990    3.2705   -0.6678 C   0  0  0  0  0  0  0  0  0  0  0  0
   -4.6946   -0.6520   -0.3505 C   0  0  0  0  0  0  0  0  0  0  0  0
   -5.6847   -0.1883   -1.1973 F   0  0  0  0  0  0  0  0  0  0  0  0
   -5.2627   -1.4314    0.6423 F   0  0  0  0  0  0  0  0  0  0  0  0
   -6.6861    1.3950    0.4185 H   0  0  0  0  0  0  0  0  0  0  0  0
   -5.5539    2.6909   -0.1608 H   0  0  0  0  0  0  0  0  0  0  0  0
   -6.2844    2.7806    1.4845 H   0  0  0  0  0  0  0  0  0  0  0  0
   -4.0064    2.0602    1.7737 H   0  0  0  0  0  0  0  0  0  0  0  0
   -5.0563    0.6497    2.1143 H   0  0  0  0  0  0  0  0  0  0  0  0
   -3.6280    1.2063   -0.5771 H   0  0  0  0  0  0  0  0  0  0  0  0
   -2.7879   -0.6695    1.6848 H   0  0  0  0  0  0  0  0  0  0  0  0
   -0.4088   -1.0082    1.8186 H   0  0  0  0  0  0  0  0  0  0  0  0
    1.7202   -1.1676    0.9755 H   0  0  0  0  0  0  0  0  0  0  0  0
    2.0994   -1.1571   -1.4395 H   0  0  0  0  0  0  0  0  0  0  0  0
    0.6357   -0.1922   -1.7410 H   0  0  0  0  0  0  0  0  0  0  0  0
    1.7247   -3.4465   -0.1035 H   0  0  0  0  0  0  0  0  0  0  0  0
    0.4216   -5.5372   -0.2708 H   0  0  0  0  0  0  0  0  0  0  0  0
   -1.7586   -5.5580   -1.4502 H   0  0  0  0  0  0  0  0  0  0  0  0
   -2.6367   -3.4768   -2.4713 H   0  0  0  0  0  0  0  0  0  0  0  0
   -1.3516   -1.3781   -2.3161 H   0  0  0  0  0  0  0  0  0  0  0  0
    3.7023    0.1345   -0.1690 H   0  0  0  0  0  0  0  0  0  0  0  0
    3.8395    2.7038    1.1626 H   0  0  0  0  0  0  0  0  0  0  0  0
    3.3572    2.9927   -0.5554 H   0  0  0  0  0  0  0  0  0  0  0  0
    5.3473    1.7191   -1.3353 H   0  0  0  0  0  0  0  0  0  0  0  0
    5.8343    1.4302    0.3959 H   0  0  0  0  0  0  0  0  0  0  0  0
    7.8628    2.6059    0.0241 H   0  0  0  0  0  0  0  0  0  0  0  0
    7.7774    4.2709   -0.6352 H   0  0  0  0  0  0  0  0  0  0  0  0
    7.3734    2.8965   -1.7133 H   0  0  0  0  0  0  0  0  0  0  0  0
   -4.0099   -1.2899   -0.9498 H   0  0  0  0  0  0  0  0  0  0  0  0
  1  2  1  0
  2  3  1  0
  3  4  1  0
  4  5  1  0
  5  6  2  0
  5  7  1  0
  7  8  1  0
  8  9  1  0
  9 10  1  0
 10 11  2  0
 11 12  1  0
 12 13  2  0
 13 14  1  0
 14 15  2  0
  8 16  1  0
 16 17  2  0
 16 18  1  0
 18 19  1  0
 19 20  1  0
 20 21  1  0
 21 22  1  0
  3 23  1  0
 23 24  1  0
 23 25  1  0
 15 10  1  0
  1 26  1  0
  1 27  1  0
  1 28  1  0
  2 29  1  0
  2 30  1  0
  3 31  1  6
  4 32  1  0
  7 33  1  0
  8 34  1  1
  9 35  1  0
  9 36  1  0
 11 37  1  0
 12 38  1  0
 13 39  1  0
 14 40  1  0
 15 41  1  0
 18 42  1  0
 19 43  1  0
 19 44  1  0
 20 45  1  0
 20 46  1  0
 22 47  1  0
 22 48  1  0
 22 49  1  0
 23 50  1  0
M  END
$$$$
mol_13
     RDKit          3D

 61 62  0  0  0  0  0  0  0  0999 V2000
   -1.8111   -0.6469    3.4905 C   0  0  0  0  0  0  0  0  0  0  0  0
   -2.5832   -1.2372    2.3088 C   0  0  0  0  0  0  0  0  0  0  0  0
   -3.4106   -0.2008    1.4978 C   0  0  0  0  0  0  0  0  0  0  0  0
   -4.5311    0.4170    2.3809 C   0  0  0  0  0  0  0  0  0  0  0  0
   -5.8145    0.7184    1.6021 C   0  0  0  0  0  0  0  0  0  0  0  0
   -2.5179    0.8920    0.8326 C   0  0  1  0  0  0  0  0  0  0  0  0
   -1.3940    0.2879   -0.0602 C   0  0  0  0  0  0  0  0  0  0  0  0
   -1.0050    1.2696   -1.1678 C   0  0  1  0  0  0  0  0  0  0  0  0
    0.0326    0.6720   -2.0134 N   0  0  0  0  0  0  0  0  0  0  0  0
    1.3900    1.1433   -2.0415 C   0  0  0  0  0  0  0  0  0  0  0  0
    1.6995    2.2032   -1.4333 O   0  0  0  0  0  0  0  0  0  0  0  0
    2.4170    0.3885   -2.7181 N   0  0  0  0  0  0  0  0  0  0  0  0
    2.1104   -0.3742   -3.9357 C   0  0  0  0  0  0  0  0  0  0  0  0
    1.9959   -1.8669   -3.6338 C   0  0  0  0  0  0  0  0  0  0  0  0
    1.6218   -2.5490   -4.7960 O   0  0  0  0  0  0  0  0  0  0  0  0
    3.8094    0.4535   -2.2472 C   0  0  0  0  0  0  0  0  0  0  0  0
    3.9079    0.2184   -0.7591 C   0  0  0  0  0  0  0  0  0  0  0  0
    3.2680   -0.8792   -0.1598 C   0  0  0  0  0  0  0  0  0  0  0  0
    3.3345   -1.0655    1.2267 C   0  0  0  0  0  0  0  0  0  0  0  0
    4.0760   -0.1765    2.0302 C   0  0  0  0  0  0  0  0  0  0  0  0
    4.1850   -0.3264    3.4221 O   0  0  0  0  0  0  0  0  0  0  0  0
    3.4940   -1.3131    4.1800 C   0  0  0  0  0  0  0  0  0  0  0  0
    4.7382    0.8963    1.4252 C   0  0  0  0  0  0  0  0  0  0  0  0
    4.6504    1.0974    0.0426 C   0  0  0  0  0  0  0  0  0  0  0  0
   -2.2377    1.6344   -2.0137 C   0  0  0  0  0  0  0  0  0  0  0  0
   -3.5355    1.5241   -1.1966 C   0  0  0  0  0  0  0  0  0  0  0  0
   -3.3094    1.8665    0.1568 O   0  0  0  0  0  0  0  0  0  0  0  0
   -1.3378   -1.4722    4.0656 H   0  0  0  0  0  0  0  0  0  0  0  0
   -2.4900   -0.0956    4.1729 H   0  0  0  0  0  0  0  0  0  0  0  0
   -1.0053    0.0280    3.1391 H   0  0  0  0  0  0  0  0  0  0  0  0
   -3.2694   -2.0210    2.6954 H   0  0  0  0  0  0  0  0  0  0  0  0
   -1.8679   -1.7651    1.6447 H   0  0  0  0  0  0  0  0  0  0  0  0
   -3.8946   -0.7835    0.6853 H   0  0  0  0  0  0  0  0  0  0  0  0
   -4.8116   -0.2905    3.1926 H   0  0  0  0  0  0  0  0  0  0  0  0
   -4.1713    1.3464    2.8728 H   0  0  0  0  0  0  0  0  0  0  0  0
   -5.6524    1.5120    0.8444 H   0  0  0  0  0  0  0  0  0  0  0  0
   -6.5973    1.0740    2.3046 H   0  0  0  0  0  0  0  0  0  0  0  0
   -6.1909   -0.2007    1.1027 H   0  0  0  0  0  0  0  0  0  0  0  0
   -2.0055    1.4473    1.6455 H   0  0  0  0  0  0  0  0  0  0  0  0
   -1.7445   -0.6575   -0.5309 H   0  0  0  0  0  0  0  0  0  0  0  0
   -0.5025    0.0506    0.5594 H   0  0  0  0  0  0  0  0  0  0  0  0
   -0.6290    2.1964   -0.6820 H   0  0  0  0  0  0  0  0  0  0  0  0
   -0.2105   -0.2071   -2.5209 H   0  0  0  0  0  0  0  0  0  0  0  0
    1.1685   -0.0070   -4.3990 H   0  0  0  0  0  0  0  0  0  0  0  0
    2.9148   -0.2147   -4.6846 H   0  0  0  0  0  0  0  0  0  0  0  0
    1.2362   -2.0396   -2.8424 H   0  0  0  0  0  0  0  0  0  0  0  0
    2.9764   -2.2480   -3.2764 H   0  0  0  0  0  0  0  0  0  0  0  0
    1.5946   -3.5113   -4.5540 H   0  0  0  0  0  0  0  0  0  0  0  0
    4.4240   -0.3141   -2.7577 H   0  0  0  0  0  0  0  0  0  0  0  0
    4.2342    1.4428   -2.5160 H   0  0  0  0  0  0  0  0  0  0  0  0
    2.7020   -1.5795   -0.7609 H   0  0  0  0  0  0  0  0  0  0  0  0
    2.8135   -1.9066    1.6612 H   0  0  0  0  0  0  0  0  0  0  0  0
    3.7838   -2.3320    3.8413 H   0  0  0  0  0  0  0  0  0  0  0  0
    2.3963   -1.1739    4.0754 H   0  0  0  0  0  0  0  0  0  0  0  0
    3.7678   -1.2027    5.2492 H   0  0  0  0  0  0  0  0  0  0  0  0
    5.3201    1.5821    2.0303 H   0  0  0  0  0  0  0  0  0  0  0  0
    5.1652    1.9400   -0.3991 H   0  0  0  0  0  0  0  0  0  0  0  0
   -2.3206    0.9637   -2.8961 H   0  0  0  0  0  0  0  0  0  0  0  0
   -2.1232    2.6731   -2.3900 H   0  0  0  0  0  0  0  0  0  0  0  0
   -4.2920    2.2203   -1.6185 H   0  0  0  0  0  0  0  0  0  0  0  0
   -3.9619    0.4994   -1.2831 H   0  0  0  0  0  0  0  0  0  0  0  0
  1  2  1  0
  2  3  1  0
  3  4  1  0
  4  5  1  0
  3  6  1  0
  6  7  1  0
  7  8  1  0
  8  9  1  0
  9 10  1  0
 10 11  2  0
 10 12  1  0
 12 13  1  0
 13 14  1  0
 14 15  1  0
 12 16  1  0
 16 17  1  0
 17 18  2  0
 18 19  1  0
 19 20  2  0
 20 21  1  0
 21 22  1  0
 20 23  1  0
 23 24  2  0
  8 25  1  0
 25 26  1  0
 26 27  1  0
 27  6  1  0
 24 17  1  0
  1 28  1  0
  1 29  1  0
  1 30  1  0
  2 31  1  0
  2 32  1  0
  3 33  1  0
  4 34  1  0
  4 35  1  0
  5 36  1  0
  5 37  1  0
  5 38  1  0
  6 39  1  1
  7 40  1  0
  7 41  1  0
  8 42  1  1
  9 43  1  0
 13 44  1  0
 13 45  1  0
 14 46  1  0
 14 47  1  0
 15 48  1  0
 16 49  1  0
 16 50  1  0
 18 51  1  0
 19 52  1  0
 22 53  1  0
 22 54  1  0
 22 55  1  0
 23 56  1  0
 24 57  1  0
 25 58  1  0
 25 59  1  0
 26 60  1  0
 26 61  1  0
M  END
$$$$
mol_14
     RDKit          3D

 51 53  0  0  0  0  0  0  0  0999 V2000
    2.7582   -3.5138   -1.2708 C   0  0  0  0  0  0  0  0  0  0  0  0
    2.2595   -2.1182   -1.0763 C   0  0  0  0  0  0  0  0  0  0  0  0
    2.3168   -1.3090   -2.0411 O   0  0  0  0  0  0  0  0  0  0  0  0
    1.7287   -1.7050    0.1928 N   0  0  0  0  0  0  0  0  0  0  0  0
    1.3717   -0.3116    0.4915 C   0  0  2  0  0  0  0  0  0  0  0  0
    2.4424    0.3222    1.3965 C   0  0  0  0  0  0  0  0  0  0  0  0
    3.7930    0.3347    0.7254 C   0  0  0  0  0  0  0  0  0  0  0  0
    4.0363    1.1953   -0.3580 C   0  0  0  0  0  0  0  0  0  0  0  0
    5.2807    1.1936   -0.9949 C   0  0  0  0  0  0  0  0  0  0  0  0
    6.2956    0.3336   -0.5542 C   0  0  0  0  0  0  0  0  0  0  0  0
    7.5388    0.3213   -1.1824 O   0  0  0  0  0  0  0  0  0  0  0  0
    6.0595   -0.5214    0.5270 C   0  0  0  0  0  0  0  0  0  0  0  0
    4.8161   -0.5212    1.1663 C   0  0  0  0  0  0  0  0  0  0  0  0
    0.0193   -0.2390    1.1549 C   0  0  0  0  0  0  0  0  0  0  0  0
   -0.5023   -1.2747    1.6526 O   0  0  0  0  0  0  0  0  0  0  0  0
   -0.6675    1.0188    1.2307 N   0  0  0  0  0  0  0  0  0  0  0  0
   -2.0177    1.1532    1.7754 C   0  0  0  0  0  0  0  0  0  0  0  0
   -3.0721    0.7640    0.7288 C   0  0  1  0  0  0  0  0  0  0  0  0
   -3.0223    1.6069   -0.5653 C   0  0  0  0  0  0  0  0  0  0  0  0
   -4.4256    1.3693   -1.1410 C   0  0  0  0  0  0  0  0  0  0  0  0
   -5.0342    0.4284   -0.0853 C   0  0  1  0  0  0  0  0  0  0  0  0
   -6.4938    0.3137   -0.1380 N   0  0  0  0  0  0  0  0  0  0  0  0
   -4.2854   -0.9063   -0.1363 C   0  0  0  0  0  0  0  0  0  0  0  0
   -2.9958   -0.6094    0.3718 O   0  0  0  0  0  0  0  0  0  0  0  0
   -4.4935    0.9703    1.2014 C   0  0  0  0  0  0  0  0  0  0  0  0
    3.8327   -3.4875   -1.5484 H   0  0  0  0  0  0  0  0  0  0  0  0
    2.6444   -4.1112   -0.3422 H   0  0  0  0  0  0  0  0  0  0  0  0
    2.1830   -4.0040   -2.0837 H   0  0  0  0  0  0  0  0  0  0  0  0
    1.7400   -2.3914    0.9815 H   0  0  0  0  0  0  0  0  0  0  0  0
    1.2979    0.2727   -0.4516 H   0  0  0  0  0  0  0  0  0  0  0  0
    2.1617    1.3680    1.6496 H   0  0  0  0  0  0  0  0  0  0  0  0
    2.4901   -0.2430    2.3540 H   0  0  0  0  0  0  0  0  0  0  0  0
    3.2611    1.8647   -0.7100 H   0  0  0  0  0  0  0  0  0  0  0  0
    5.4547    1.8594   -1.8305 H   0  0  0  0  0  0  0  0  0  0  0  0
    7.7408    0.9283   -1.9682 H   0  0  0  0  0  0  0  0  0  0  0  0
    6.8399   -1.1884    0.8708 H   0  0  0  0  0  0  0  0  0  0  0  0
    4.6489   -1.1962    1.9964 H   0  0  0  0  0  0  0  0  0  0  0  0
   -0.1860    1.8805    0.8875 H   0  0  0  0  0  0  0  0  0  0  0  0
   -2.1794    2.2101    2.0810 H   0  0  0  0  0  0  0  0  0  0  0  0
   -2.1261    0.5245    2.6859 H   0  0  0  0  0  0  0  0  0  0  0  0
   -2.2298    1.2417   -1.2547 H   0  0  0  0  0  0  0  0  0  0  0  0
   -2.8674    2.6860   -0.3424 H   0  0  0  0  0  0  0  0  0  0  0  0
   -4.9919    2.3253   -1.1985 H   0  0  0  0  0  0  0  0  0  0  0  0
   -4.3862    0.8975   -2.1473 H   0  0  0  0  0  0  0  0  0  0  0  0
   -6.7789   -0.0943   -1.0576 H   0  0  0  0  0  0  0  0  0  0  0  0
   -6.8356   -0.3059    0.6323 H   0  0  0  0  0  0  0  0  0  0  0  0
   -6.9302    1.2582   -0.0320 H   0  0  0  0  0  0  0  0  0  0  0  0
   -4.7717   -1.6684    0.5119 H   0  0  0  0  0  0  0  0  0  0  0  0
   -4.2123   -1.3045   -1.1715 H   0  0  0  0  0  0  0  0  0  0  0  0
   -4.7570    2.0387    1.3823 H   0  0  0  0  0  0  0  0  0  0  0  0
   -4.7489    0.3434    2.0873 H   0  0  0  0  0  0  0  0  0  0  0  0
  1  2  1  0
  2  3  2  0
  2  4  1  0
  4  5  1  0
  5  6  1  0
  6  7  1  0
  7  8  2  0
  8  9  1  0
  9 10  2  0
 10 11  1  0
 10 12  1  0
 12 13  2  0
  5 14  1  0
 14 15  2  0
 14 16  1  0
 16 17  1  0
 18 17  1  1
 18 19  1  0
 19 20  1  0
 20 21  1  0
 21 22  1  1
 21 23  1  0
 23 24  1  0
 21 25  1  0
 13  7  1  0
 24 18  1  0
 25 18  1  0
  1 26  1  0
  1 27  1  0
  1 28  1  0
  4 29  1  0
  5 30  1  6
  6 31  1  0
  6 32  1  0
  8 33  1  0
  9 34  1  0
 11 35  1  0
 12 36  1  0
 13 37  1  0
 16 38  1  0
 17 39  1  0
 17 40  1  0
 19 41  1  0
 19 42  1  0
 20 43  1  0
 20 44  1  0
 22 45  1  0
 22 46  1  0
 22 47  1  0
 23 48  1  0
 23 49  1  0
 25 50  1  0
 25 51  1  0
M  CHG  1  22   1
M  END
$$$$
mol_15
     RDKit          3D

 52 53  0  0  0  0  0  0  0  0999 V2000
    9.0352    0.6226   -2.1419 C   0  0  0  0  0  0  0  0  0  0  0  0
    7.7987    1.3281   -2.1672 O   0  0  0  0  0  0  0  0  0  0  0  0
    6.6458    0.9301   -1.4742 C   0  0  0  0  0  0  0  0  0  0  0  0
    5.4948    1.7180   -1.5902 C   0  0  0  0  0  0  0  0  0  0  0  0
    4.3205    1.3636   -0.9201 C   0  0  0  0  0  0  0  0  0  0  0  0
    4.2835    0.2147   -0.1155 C   0  0  0  0  0  0  0  0  0  0  0  0
    3.0060   -0.1833    0.5808 C   0  0  0  0  0  0  0  0  0  0  0  0
    2.0468   -0.9248   -0.3663 C   0  0  2  0  0  0  0  0  0  0  0  0
    0.7699   -1.1552    0.3147 N   0  0  0  0  0  0  0  0  0  0  0  0
   -0.4817   -0.6355   -0.1573 C   0  0  0  0  0  0  0  0  0  0  0  0
   -0.5294    0.0435   -1.2194 O   0  0  0  0  0  0  0  0  0  0  0  0
   -1.6825   -0.8972    0.5827 N   0  0  0  0  0  0  0  0  0  0  0  0
   -2.9879   -0.3678    0.1739 C   0  0  2  0  0  0  0  0  0  0  0  0
   -3.0803    1.1250    0.5072 C   0  0  0  0  0  0  0  0  0  0  0  0
   -4.4695    1.6657    0.1506 C   0  0  0  0  0  0  0  0  0  0  0  0
   -5.5418    0.9298    0.8616 N   0  0  1  0  0  0  0  0  0  0  0  0
   -6.8441    1.5339    0.5111 C   0  0  0  0  0  0  0  0  0  0  0  0
   -5.4985   -0.5245    0.5279 C   0  0  2  0  0  0  0  0  0  0  0  0
   -6.5883   -1.3250    1.2696 C   0  0  0  0  0  0  0  0  0  0  0  0
   -4.1190   -1.1231    0.8849 C   0  0  0  0  0  0  0  0  0  0  0  0
    2.6198   -2.2452   -0.7995 C   0  0  0  0  0  0  0  0  0  0  0  0
    2.8539   -2.4645   -2.0171 O   0  0  0  0  0  0  0  0  0  0  0  0
    2.8950   -3.2322    0.1396 O   0  0  0  0  0  0  0  0  0  0  0  0
    5.4332   -0.5823   -0.0031 C   0  0  0  0  0  0  0  0  0  0  0  0
    6.6075   -0.2277   -0.6737 C   0  0  0  0  0  0  0  0  0  0  0  0
    9.7713    1.1579   -2.7760 H   0  0  0  0  0  0  0  0  0  0  0  0
    9.4269    0.5759   -1.1039 H   0  0  0  0  0  0  0  0  0  0  0  0
    8.8978   -0.4031   -2.5449 H   0  0  0  0  0  0  0  0  0  0  0  0
    5.5100    2.6085   -2.2059 H   0  0  0  0  0  0  0  0  0  0  0  0
    3.4389    1.9831   -1.0300 H   0  0  0  0  0  0  0  0  0  0  0  0
    3.2296   -0.8139    1.4699 H   0  0  0  0  0  0  0  0  0  0  0  0
    2.5027    0.7330    0.9606 H   0  0  0  0  0  0  0  0  0  0  0  0
    1.8916   -0.2911   -1.2678 H   0  0  0  0  0  0  0  0  0  0  0  0
    0.7719   -1.7186    1.1956 H   0  0  0  0  0  0  0  0  0  0  0  0
   -1.6171   -1.5143    1.4241 H   0  0  0  0  0  0  0  0  0  0  0  0
   -3.1102   -0.5117   -0.9237 H   0  0  0  0  0  0  0  0  0  0  0  0
   -2.8851    1.2856    1.5906 H   0  0  0  0  0  0  0  0  0  0  0  0
   -2.3154    1.6898   -0.0675 H   0  0  0  0  0  0  0  0  0  0  0  0
   -4.4923    2.7432    0.4310 H   0  0  0  0  0  0  0  0  0  0  0  0
   -4.6160    1.6011   -0.9525 H   0  0  0  0  0  0  0  0  0  0  0  0
   -5.3998    1.0539    1.8932 H   0  0  0  0  0  0  0  0  0  0  0  0
   -7.1246    1.3017   -0.5403 H   0  0  0  0  0  0  0  0  0  0  0  0
   -6.8158    2.6394    0.6333 H   0  0  0  0  0  0  0  0  0  0  0  0
   -7.6428    1.1733    1.1931 H   0  0  0  0  0  0  0  0  0  0  0  0
   -5.6622   -0.6662   -0.5659 H   0  0  0  0  0  0  0  0  0  0  0  0
   -6.4332   -2.4162    1.1294 H   0  0  0  0  0  0  0  0  0  0  0  0
   -7.5941   -1.0911    0.8639 H   0  0  0  0  0  0  0  0  0  0  0  0
   -6.5679   -1.0995    2.3573 H   0  0  0  0  0  0  0  0  0  0  0  0
   -4.0819   -2.1917    0.5778 H   0  0  0  0  0  0  0  0  0  0  0  0
   -3.9668   -1.0745    1.9868 H   0  0  0  0  0  0  0  0  0  0  0  0
    5.4198   -1.4806    0.6018 H   0  0  0  0  0  0  0  0  0  0  0  0
    7.4773   -0.8609   -0.5654 H   0  0  0  0  0  0  0  0  0  0  0  0
  1  2  1  0
  2  3  1  0
  3  4  2  0
  4  5  1  0
  5  6  2  0
  6  7  1  0
  7  8  1  0
  8  9  1  0
  9 10  1  0
 10 11  2  0
 10 12  1  0
 12 13  1  0
 13 14  1  0
 14 15  1  0
 15 16  1  0
 16 17  1  0
 16 18  1  0
 18 19  1  0
 18 20  1  0
  8 21  1  0
 21 22  2  0
 21 23  1  0
  6 24  1  0
 24 25  2  0
 25  3  1  0
 20 13  1  0
  1 26  1  0
  1 27  1  0
  1 28  1  0
  4 29  1  0
  5 30  1  0
  7 31  1  0
  7 32  1  0
  8 33  1  6
  9 34  1  0
 12 35  1  0
 13 36  1  6
 14 37  1  0
 14 38  1  0
 15 39  1  0
 15 40  1  0
 16 41  1  1
 17 42  1  0
 17 43  1  0
 17 44  1  0
 18 45  1  6
 19 46  1  0
 19 47  1  0
 19 48  1  0
 20 49  1  0
 20 50  1  0
 24 51  1  0
 25 52  1  0
M  CHG  2  16   1  23  -1
M  END
$$$$
mol_16
     RDKit          3D

 32 32  0  0  0  0  0  0  0  0999 V2000
   -1.1550   -4.1455    0.8838 C   0  0  0  0  0  0  0  0  0  0  0  0
   -0.8806   -2.8171    0.2585 C   0  0  0  0  0  0  0  0  0  0  0  0
   -0.4111   -2.7629   -0.9105 O   0  0  0  0  0  0  0  0  0  0  0  0
   -1.1533   -1.6129    0.9889 N   0  0  0  0  0  0  0  0  0  0  0  0
   -0.8661   -0.2855    0.4369 C   0  0  1  0  0  0  0  0  0  0  0  0
   -1.5429    0.8073    1.2867 C   0  0  0  0  0  0  0  0  0  0  0  0
   -1.3431    2.1748    0.7005 C   0  0  0  0  0  0  0  0  0  0  0  0
   -1.8165    2.6151   -0.5159 C   0  0  0  0  0  0  0  0  0  0  0  0
   -1.4233    3.8874   -0.6734 N   0  0  0  0  0  0  0  0  0  0  0  0
   -0.7287    4.1913    0.4395 C   0  0  0  0  0  0  0  0  0  0  0  0
   -0.6579    3.1626    1.3107 N   0  0  0  0  0  0  0  0  0  0  0  0
    0.6261   -0.0747    0.3823 C   0  0  0  0  0  0  0  0  0  0  0  0
    1.3023   -0.1460    1.4450 O   0  0  0  0  0  0  0  0  0  0  0  0
    1.2705    0.2029   -0.8701 N   0  0  0  0  0  0  0  0  0  0  0  0
    2.7206    0.3392   -1.0080 C   0  0  0  0  0  0  0  0  0  0  0  0
    3.3302   -0.9188   -1.6291 C   0  0  0  0  0  0  0  0  0  0  0  0
    4.6780   -0.7078   -1.8550 F   0  0  0  0  0  0  0  0  0  0  0  0
    2.7142   -1.1980   -2.8361 F   0  0  0  0  0  0  0  0  0  0  0  0
    3.1369   -2.4467   -0.4486 Br  0  0  0  0  0  0  0  0  0  0  0  0
   -0.5541   -4.2496    1.8112 H   0  0  0  0  0  0  0  0  0  0  0  0
   -2.2332   -4.2216    1.1360 H   0  0  0  0  0  0  0  0  0  0  0  0
   -0.8885   -4.9689    0.1875 H   0  0  0  0  0  0  0  0  0  0  0  0
   -1.5906   -1.6974    1.9352 H   0  0  0  0  0  0  0  0  0  0  0  0
   -1.2947   -0.2340   -0.5886 H   0  0  0  0  0  0  0  0  0  0  0  0
   -2.6344    0.6061    1.3468 H   0  0  0  0  0  0  0  0  0  0  0  0
   -1.1380    0.7850    2.3224 H   0  0  0  0  0  0  0  0  0  0  0  0
   -2.4011    2.0536   -1.2330 H   0  0  0  0  0  0  0  0  0  0  0  0
   -1.6158    4.5114   -1.4877 H   0  0  0  0  0  0  0  0  0  0  0  0
   -0.2753    5.1574    0.6179 H   0  0  0  0  0  0  0  0  0  0  0  0
    0.6918    0.2401   -1.7394 H   0  0  0  0  0  0  0  0  0  0  0  0
    3.1993    0.5454   -0.0267 H   0  0  0  0  0  0  0  0  0  0  0  0
    2.9342    1.2076   -1.6675 H   0  0  0  0  0  0  0  0  0  0  0  0
  1  2  1  0
  2  3  2  0
  2  4  1  0
  4  5  1  0
  5  6  1  0
  6  7  1  0
  7  8  2  0
  8  9  1  0
  9 10  1  0
 10 11  2  0
  5 12  1  0
 12 13  2  0
 12 14  1  0
 14 15  1  0
 15 16  1  0
 16 17  1  0
 16 18  1  0
 16 19  1  0
 11  7  1  0
  1 20  1  0
  1 21  1  0
  1 22  1  0
  4 23  1  0
  5 24  1  6
  6 25  1  0
  6 26  1  0
  8 27  1  0
  9 28  1  0
 10 29  1  0
 14 30  1  0
 15 31  1  0
 15 32  1  0
M  END
$$$$
mol_17
     RDKit          3D

 52 54  0  0  0  0  0  0  0  0999 V2000
    4.1584   -1.6173   -1.3741 C   0  0  0  0  0  0  0  0  0  0  0  0
    5.0505   -0.6984   -0.5269 C   0  0  0  0  0  0  0  0  0  0  0  0
    6.2577   -0.2415   -1.3576 C   0  0  0  0  0  0  0  0  0  0  0  0
    4.2861    0.5359    0.0105 C   0  0  0  0  0  0  0  0  0  0  0  0
    3.1867    0.2102    1.0574 C   0  0  2  0  0  0  0  0  0  0  0  0
    1.8080   -0.1348    0.4181 C   0  0  0  0  0  0  0  0  0  0  0  0
    0.6635    0.4233    1.2697 C   0  0  2  0  0  0  0  0  0  0  0  0
   -0.6230    0.1324    0.6333 N   0  0  0  0  0  0  0  0  0  0  0  0
   -1.6709   -0.6112    1.2721 C   0  0  0  0  0  0  0  0  0  0  0  0
   -1.4874   -1.1359    2.4050 O   0  0  0  0  0  0  0  0  0  0  0  0
   -2.9165   -0.8235    0.5888 N   0  0  0  0  0  0  0  0  0  0  0  0
   -3.7624    0.2919    0.2022 C   0  0  0  0  0  0  0  0  0  0  0  0
   -5.0044    0.0418   -0.4187 C   0  0  0  0  0  0  0  0  0  0  0  0
   -5.8262    1.1088   -0.8113 C   0  0  0  0  0  0  0  0  0  0  0  0
   -5.4333    2.4253   -0.5706 C   0  0  0  0  0  0  0  0  0  0  0  0
   -4.2268    2.6846    0.0783 C   0  0  0  0  0  0  0  0  0  0  0  0
   -3.3997    1.6298    0.4723 C   0  0  0  0  0  0  0  0  0  0  0  0
   -5.4586   -1.3033   -0.5935 N   0  0  0  0  0  0  0  0  0  0  0  0
   -4.6420   -2.4018   -0.1899 C   0  0  0  0  0  0  0  0  0  0  0  0
   -5.1321   -3.5617   -0.1468 O   0  0  0  0  0  0  0  0  0  0  0  0
   -3.1840   -2.1924    0.1078 C   0  0  1  0  0  0  0  0  0  0  0  0
   -2.3577   -2.4733   -1.1514 C   0  0  0  0  0  0  0  0  0  0  0  0
    0.8303    1.9406    1.4524 C   0  0  0  0  0  0  0  0  0  0  0  0
    2.3139    2.3356    1.5531 C   0  0  0  0  0  0  0  0  0  0  0  0
    3.1019    1.2567    2.0221 O   0  0  0  0  0  0  0  0  0  0  0  0
    3.5950   -1.0332   -2.1327 H   0  0  0  0  0  0  0  0  0  0  0  0
    3.4491   -2.1703   -0.7281 H   0  0  0  0  0  0  0  0  0  0  0  0
    4.7722   -2.3789   -1.8999 H   0  0  0  0  0  0  0  0  0  0  0  0
    5.4420   -1.2842    0.3341 H   0  0  0  0  0  0  0  0  0  0  0  0
    6.9254    0.4068   -0.7492 H   0  0  0  0  0  0  0  0  0  0  0  0
    6.8509   -1.1206   -1.6896 H   0  0  0  0  0  0  0  0  0  0  0  0
    5.9239    0.3259   -2.2540 H   0  0  0  0  0  0  0  0  0  0  0  0
    3.8648    1.1208   -0.8358 H   0  0  0  0  0  0  0  0  0  0  0  0
    5.0298    1.1990    0.5061 H   0  0  0  0  0  0  0  0  0  0  0  0
    3.5117   -0.6899    1.6230 H   0  0  0  0  0  0  0  0  0  0  0  0
    1.6847   -1.2356    0.3432 H   0  0  0  0  0  0  0  0  0  0  0  0
    1.7301    0.2863   -0.6081 H   0  0  0  0  0  0  0  0  0  0  0  0
    0.7186   -0.0562    2.2725 H   0  0  0  0  0  0  0  0  0  0  0  0
   -0.7913    0.4900   -0.3356 H   0  0  0  0  0  0  0  0  0  0  0  0
   -6.7772    0.9182   -1.2935 H   0  0  0  0  0  0  0  0  0  0  0  0
   -6.0721    3.2450   -0.8731 H   0  0  0  0  0  0  0  0  0  0  0  0
   -3.9330    3.7063    0.2818 H   0  0  0  0  0  0  0  0  0  0  0  0
   -2.4843    1.8727    0.9927 H   0  0  0  0  0  0  0  0  0  0  0  0
   -6.4205   -1.4895   -0.9565 H   0  0  0  0  0  0  0  0  0  0  0  0
   -2.8856   -2.9228    0.8936 H   0  0  0  0  0  0  0  0  0  0  0  0
   -1.2737   -2.3880   -0.9226 H   0  0  0  0  0  0  0  0  0  0  0  0
   -2.5520   -3.5030   -1.5200 H   0  0  0  0  0  0  0  0  0  0  0  0
   -2.6092   -1.7462   -1.9540 H   0  0  0  0  0  0  0  0  0  0  0  0
    0.3747    2.4886    0.5990 H   0  0  0  0  0  0  0  0  0  0  0  0
    0.2943    2.2507    2.3761 H   0  0  0  0  0  0  0  0  0  0  0  0
    2.6841    2.7035    0.5694 H   0  0  0  0  0  0  0  0  0  0  0  0
    2.4154    3.1831    2.2635 H   0  0  0  0  0  0  0  0  0  0  0  0
  1  2  1  0
  2  3  1  0
  2  4  1  0
  4  5  1  0
  5  6  1  0
  6  7  1  0
  7  8  1  0
  8  9  1  0
  9 10  2  0
  9 11  1  0
 11 12  1  0
 12 13  1  0
 13 14  2  0
 14 15  1  0
 15 16  2  0
 16 17  1  0
 13 18  1  0
 18 19  1  0
 19 20  2  0
 19 21  1  0
 21 22  1  0
  7 23  1  0
 23 24  1  0
 24 25  1  0
 25  5  1  0
 21 11  1  0
 17 12  2  0
  1 26  1  0
  1 27  1  0
  1 28  1  0
  2 29  1  0
  3 30  1  0
  3 31  1  0
  3 32  1  0
  4 33  1  0
  4 34  1  0
  5 35  1  1
  6 36  1  0
  6 37  1  0
  7 38  1  1
  8 39  1  0
 14 40  1  0
 15 41  1  0
 16 42  1  0
 17 43  1  0
 18 44  1  0
 21 45  1  1
 22 46  1  0
 22 47  1  0
 22 48  1  0
 23 49  1  0
 23 50  1  0
 24 51  1  0
 24 52  1  0
M  END
$$$$
mol_18
     RDKit          3D

 48 49  0  0  0  0  0  0  0  0999 V2000
    1.6010    1.4591   -2.8874 C   0  0  0  0  0  0  0  0  0  0  0  0
    2.7421    0.7516   -2.2179 C   0  0  0  0  0  0  0  0  0  0  0  0
    3.6927    0.3353   -2.9353 O   0  0  0  0  0  0  0  0  0  0  0  0
    2.7785    0.5466   -0.7860 N   0  0  0  0  0  0  0  0  0  0  0  0
    1.7367    1.0971    0.0966 C   0  0  0  0  0  0  0  0  0  0  0  0
    0.5251    0.2092    0.1418 C   0  0  0  0  0  0  0  0  0  0  0  0
    0.5260   -0.9008   -0.4582 O   0  0  0  0  0  0  0  0  0  0  0  0
   -0.6300    0.6344    0.8782 N   0  0  0  0  0  0  0  0  0  0  0  0
   -1.8578   -0.1632    0.9720 C   0  0  1  0  0  0  0  0  0  0  0  0
   -2.0498   -0.6864    2.3887 C   0  0  0  0  0  0  0  0  0  0  0  0
   -3.5506   -0.8424    2.5495 C   0  0  0  0  0  0  0  0  0  0  0  0
   -4.1728    0.2744    1.7218 C   0  0  0  0  0  0  0  0  0  0  0  0
   -3.1128    0.6958    0.6826 C   0  0  2  0  0  0  0  0  0  0  0  0
   -3.6162    0.6238   -0.7215 N   0  0  0  0  0  0  0  0  0  0  0  0
   -2.6983    1.3080   -1.6505 C   0  0  0  0  0  0  0  0  0  0  0  0
   -3.9022   -0.7438   -1.2105 C   0  0  0  0  0  0  0  0  0  0  0  0
    3.7813   -0.3154   -0.2156 C   0  0  0  0  0  0  0  0  0  0  0  0
    3.9034   -1.6463   -0.6494 C   0  0  0  0  0  0  0  0  0  0  0  0
    4.8724   -2.4841   -0.0889 C   0  0  0  0  0  0  0  0  0  0  0  0
    5.7252   -2.0001    0.9070 C   0  0  0  0  0  0  0  0  0  0  0  0
    5.6102   -0.6774    1.3438 C   0  0  0  0  0  0  0  0  0  0  0  0
    4.6419    0.1633    0.7860 C   0  0  0  0  0  0  0  0  0  0  0  0
    1.7434    1.4689   -3.9890 H   0  0  0  0  0  0  0  0  0  0  0  0
    1.5452    2.5099   -2.5366 H   0  0  0  0  0  0  0  0  0  0  0  0
    0.6483    0.9376   -2.6640 H   0  0  0  0  0  0  0  0  0  0  0  0
    2.1223    1.2129    1.1318 H   0  0  0  0  0  0  0  0  0  0  0  0
    1.4401    2.1107   -0.2433 H   0  0  0  0  0  0  0  0  0  0  0  0
   -0.5682    1.5262    1.4208 H   0  0  0  0  0  0  0  0  0  0  0  0
   -1.8054   -1.0425    0.3011 H   0  0  0  0  0  0  0  0  0  0  0  0
   -1.6782    0.0531    3.1332 H   0  0  0  0  0  0  0  0  0  0  0  0
   -1.5240   -1.6541    2.5405 H   0  0  0  0  0  0  0  0  0  0  0  0
   -3.8514   -0.7748    3.6175 H   0  0  0  0  0  0  0  0  0  0  0  0
   -3.8662   -1.8286    2.1427 H   0  0  0  0  0  0  0  0  0  0  0  0
   -5.1296   -0.0588    1.2665 H   0  0  0  0  0  0  0  0  0  0  0  0
   -4.4061    1.1341    2.3891 H   0  0  0  0  0  0  0  0  0  0  0  0
   -2.8717    1.7603    0.9155 H   0  0  0  0  0  0  0  0  0  0  0  0
   -4.5179    1.1577   -0.7526 H   0  0  0  0  0  0  0  0  0  0  0  0
   -1.7178    0.7885   -1.7022 H   0  0  0  0  0  0  0  0  0  0  0  0
   -2.5289    2.3602   -1.3328 H   0  0  0  0  0  0  0  0  0  0  0  0
   -3.1337    1.3363   -2.6739 H   0  0  0  0  0  0  0  0  0  0  0  0
   -2.9829   -1.2604   -1.5625 H   0  0  0  0  0  0  0  0  0  0  0  0
   -4.3801   -1.3718   -0.4313 H   0  0  0  0  0  0  0  0  0  0  0  0
   -4.6022   -0.6973   -2.0736 H   0  0  0  0  0  0  0  0  0  0  0  0
    3.2414   -2.0339   -1.4135 H   0  0  0  0  0  0  0  0  0  0  0  0
    4.9607   -3.5091   -0.4251 H   0  0  0  0  0  0  0  0  0  0  0  0
    6.4749   -2.6496    1.3399 H   0  0  0  0  0  0  0  0  0  0  0  0
    6.2727   -0.3029    2.1133 H   0  0  0  0  0  0  0  0  0  0  0  0
    4.5691    1.1889    1.1247 H   0  0  0  0  0  0  0  0  0  0  0  0
  1  2  1  0
  2  3  2  0
  2  4  1  0
  4  5  1  0
  5  6  1  0
  6  7  2  0
  6  8  1  0
  8  9  1  0
  9 10  1  0
 10 11  1  0
 11 12  1  0
 12 13  1  0
 13 14  1  0
 14 15  1  0
 14 16  1  0
  4 17  1  0
 17 18  2  0
 18 19  1  0
 19 20  2  0
 20 21  1  0
 21 22  2  0
 13  9  1  0
 22 17  1  0
  1 23  1  0
  1 24  1  0
  1 25  1  0
  5 26  1  0
  5 27  1  0
  8 28  1  0
  9 29  1  6
 10 30  1  0
 10 31  1  0
 11 32  1  0
 11 33  1  0
 12 34  1  0
 12 35  1  0
 13 36  1  1
 14 37  1  0
 15 38  1  0
 15 39  1  0
 15 40  1  0
 16 41  1  0
 16 42  1  0
 16 43  1  0
 18 44  1  0
 19 45  1  0
 20 46  1  0
 21 47  1  0
 22 48  1  0
M  CHG  1  14   1
M  END
$$$$
mol_19
     RDKit          3D

 38 38  0  0  0  0  0  0  0  0999 V2000
    0.0649    3.0786   -1.3662 C   0  0  0  0  0  0  0  0  0  0  0  0
   -0.5685    2.1840   -0.3515 C   0  0  0  0  0  0  0  0  0  0  0  0
   -1.3277    2.6754    0.5271 O   0  0  0  0  0  0  0  0  0  0  0  0
   -0.3097    0.7739   -0.3821 N   0  0  0  0  0  0  0  0  0  0  0  0
   -0.9099   -0.1515    0.5865 C   0  0  2  0  0  0  0  0  0  0  0  0
   -0.2278   -1.5328    0.5286 C   0  0  0  0  0  0  0  0  0  0  0  0
    1.2061   -1.4546    0.9713 C   0  0  0  0  0  0  0  0  0  0  0  0
    1.4666   -1.1980    2.1783 O   0  0  0  0  0  0  0  0  0  0  0  0
    2.2676   -1.6690    0.0290 N   0  0  0  0  0  0  0  0  0  0  0  0
    3.6815   -1.6628    0.4041 C   0  0  0  0  0  0  0  0  0  0  0  0
    4.3928   -0.4178   -0.1437 C   0  0  0  0  0  0  0  0  0  0  0  0
    3.9902    0.8757    0.5730 C   0  0  0  0  0  0  0  0  0  0  0  0
    2.6571    1.1611    0.3473 F   0  0  0  0  0  0  0  0  0  0  0  0
    4.7530    1.9212    0.0861 F   0  0  0  0  0  0  0  0  0  0  0  0
    4.2100    0.7619    1.9343 F   0  0  0  0  0  0  0  0  0  0  0  0
   -2.3985   -0.2862    0.3277 C   0  0  0  0  0  0  0  0  0  0  0  0
   -2.8937   -0.6295   -0.9485 C   0  0  0  0  0  0  0  0  0  0  0  0
   -2.0490   -0.8389   -1.9898 F   0  0  0  0  0  0  0  0  0  0  0  0
   -4.2711   -0.7483   -1.1606 C   0  0  0  0  0  0  0  0  0  0  0  0
   -5.1661   -0.5284   -0.1110 C   0  0  0  0  0  0  0  0  0  0  0  0
   -6.5004   -0.6446   -0.3220 F   0  0  0  0  0  0  0  0  0  0  0  0
   -4.6863   -0.1879    1.1554 C   0  0  0  0  0  0  0  0  0  0  0  0
   -3.3114   -0.0670    1.3756 C   0  0  0  0  0  0  0  0  0  0  0  0
   -0.2391    4.1343   -1.2021 H   0  0  0  0  0  0  0  0  0  0  0  0
   -0.2508    2.7667   -2.3835 H   0  0  0  0  0  0  0  0  0  0  0  0
    1.1696    3.0057   -1.2879 H   0  0  0  0  0  0  0  0  0  0  0  0
    0.3479    0.4092   -1.1089 H   0  0  0  0  0  0  0  0  0  0  0  0
   -0.7459    0.2580    1.6093 H   0  0  0  0  0  0  0  0  0  0  0  0
   -0.7613   -2.2432    1.1973 H   0  0  0  0  0  0  0  0  0  0  0  0
   -0.2832   -1.9433   -0.5021 H   0  0  0  0  0  0  0  0  0  0  0  0
    2.0306   -1.7958   -0.9809 H   0  0  0  0  0  0  0  0  0  0  0  0
    4.1621   -2.5642   -0.0330 H   0  0  0  0  0  0  0  0  0  0  0  0
    3.8102   -1.7329    1.5055 H   0  0  0  0  0  0  0  0  0  0  0  0
    5.4887   -0.5595   -0.0218 H   0  0  0  0  0  0  0  0  0  0  0  0
    4.1870   -0.3184   -1.2319 H   0  0  0  0  0  0  0  0  0  0  0  0
   -4.6454   -1.0099   -2.1421 H   0  0  0  0  0  0  0  0  0  0  0  0
   -5.3797   -0.0174    1.9690 H   0  0  0  0  0  0  0  0  0  0  0  0
   -2.9605    0.1962    2.3657 H   0  0  0  0  0  0  0  0  0  0  0  0
  1  2  1  0
  2  3  2  0
  2  4  1  0
  4  5  1  0
  5  6  1  0
  6  7  1  0
  7  8  2  0
  7  9  1  0
  9 10  1  0
 10 11  1  0
 11 12  1  0
 12 13  1  0
 12 14  1  0
 12 15  1  0
  5 16  1  0
 16 17  2  0
 17 18  1  0
 17 19  1  0
 19 20  2  0
 20 21  1  0
 20 22  1  0
 22 23  2  0
 23 16  1  0
  1 24  1  0
  1 25  1  0
  1 26  1  0
  4 27  1  0
  5 28  1  1
  6 29  1  0
  6 30  1  0
  9 31  1  0
 10 32  1  0
 10 33  1  0
 11 34  1  0
 11 35  1  0
 19 36  1  0
 22 37  1  0
 23 38  1  0
M  END
$$$$
mol_20
     RDKit          3D

 52 54  0  0  0  0  0  0  0  0999 V2000
    4.9957   -2.8862   -0.4801 C   0  0  0  0  0  0  0  0  0  0  0  0
    4.2860   -1.5233   -0.4231 C   0  0  1  0  0  0  0  0  0  0  0  0
    5.2671   -0.3622   -0.7797 C   0  0  0  0  0  0  0  0  0  0  0  0
    4.5767    0.8669   -1.4235 C   0  0  0  0  0  0  0  0  0  0  0  0
    3.0898    1.0512   -1.0401 C   0  0  0  0  0  0  0  0  0  0  0  0
    2.3647   -0.2808   -0.6601 C   0  0  1  0  0  0  0  0  0  0  0  0
    0.8722   -0.2416   -1.0579 C   0  0  0  0  0  0  0  0  0  0  0  0
    0.1546    0.8421   -0.3815 N   0  0  0  0  0  0  0  0  0  0  0  0
   -1.1936    1.1809   -0.7275 C   0  0  0  0  0  0  0  0  0  0  0  0
   -1.7527    0.6167   -1.7094 O   0  0  0  0  0  0  0  0  0  0  0  0
   -1.9215    2.2530    0.0443 C   0  0  0  0  0  0  0  0  0  0  0  0
   -3.3713    1.8837    0.4358 C   0  0  1  0  0  0  0  0  0  0  0  0
   -4.2633    1.9137   -0.7324 N   0  0  0  0  0  0  0  0  0  0  0  0
   -5.6985    1.8945   -0.6414 C   0  0  0  0  0  0  0  0  0  0  0  0
   -6.3711    1.7424    0.6130 N   0  0  0  0  0  0  0  0  0  0  0  0
   -6.3815    2.0093   -1.6941 O   0  0  0  0  0  0  0  0  0  0  0  0
   -3.4196    0.5504    1.1663 C   0  0  0  0  0  0  0  0  0  0  0  0
   -3.0876    0.5017    2.5310 C   0  0  0  0  0  0  0  0  0  0  0  0
   -3.0992   -0.7139    3.2230 C   0  0  0  0  0  0  0  0  0  0  0  0
   -3.4362   -1.8954    2.5553 C   0  0  0  0  0  0  0  0  0  0  0  0
   -3.4488   -3.5561    3.5012 Br  0  0  0  0  0  0  0  0  0  0  0  0
   -3.7583   -1.8608    1.1953 C   0  0  0  0  0  0  0  0  0  0  0  0
   -3.7488   -0.6474    0.5021 C   0  0  0  0  0  0  0  0  0  0  0  0
    3.0697   -1.4686   -1.3128 C   0  0  0  0  0  0  0  0  0  0  0  0
    2.4835   -0.4668    0.7373 O   0  0  0  0  0  0  0  0  0  0  0  0
    3.6294   -1.2655    0.9408 C   0  0  0  0  0  0  0  0  0  0  0  0
    4.3066   -3.7070   -0.1923 H   0  0  0  0  0  0  0  0  0  0  0  0
    5.3604   -3.0875   -1.5100 H   0  0  0  0  0  0  0  0  0  0  0  0
    5.8623   -2.8935    0.2118 H   0  0  0  0  0  0  0  0  0  0  0  0
    6.0377   -0.7265   -1.4965 H   0  0  0  0  0  0  0  0  0  0  0  0
    5.8258   -0.0360    0.1258 H   0  0  0  0  0  0  0  0  0  0  0  0
    5.1449    1.7874   -1.1712 H   0  0  0  0  0  0  0  0  0  0  0  0
    4.6373    0.7540   -2.5278 H   0  0  0  0  0  0  0  0  0  0  0  0
    2.5741    1.5460   -1.8925 H   0  0  0  0  0  0  0  0  0  0  0  0
    3.0271    1.7598   -0.1862 H   0  0  0  0  0  0  0  0  0  0  0  0
    0.7950   -0.1033   -2.1598 H   0  0  0  0  0  0  0  0  0  0  0  0
    0.3852   -1.2063   -0.7968 H   0  0  0  0  0  0  0  0  0  0  0  0
    0.6236    1.3763    0.3849 H   0  0  0  0  0  0  0  0  0  0  0  0
   -1.9260    3.1856   -0.5599 H   0  0  0  0  0  0  0  0  0  0  0  0
   -1.3567    2.4783    0.9775 H   0  0  0  0  0  0  0  0  0  0  0  0
   -3.7152    2.6818    1.1331 H   0  0  0  0  0  0  0  0  0  0  0  0
   -3.8550    2.0538   -1.6843 H   0  0  0  0  0  0  0  0  0  0  0  0
   -5.8586    1.7801    1.5183 H   0  0  0  0  0  0  0  0  0  0  0  0
   -7.4097    1.6588    0.6384 H   0  0  0  0  0  0  0  0  0  0  0  0
   -2.8187    1.4071    3.0628 H   0  0  0  0  0  0  0  0  0  0  0  0
   -2.8457   -0.7357    4.2742 H   0  0  0  0  0  0  0  0  0  0  0  0
   -4.0212   -2.7732    0.6738 H   0  0  0  0  0  0  0  0  0  0  0  0
   -4.0002   -0.6474   -0.5510 H   0  0  0  0  0  0  0  0  0  0  0  0
    3.3085   -1.3105   -2.3887 H   0  0  0  0  0  0  0  0  0  0  0  0
    2.4626   -2.3952   -1.2087 H   0  0  0  0  0  0  0  0  0  0  0  0
    4.3158   -0.7654    1.6559 H   0  0  0  0  0  0  0  0  0  0  0  0
    3.3029   -2.2193    1.4104 H   0  0  0  0  0  0  0  0  0  0  0  0
  2  1  1  1
  2  3  1  0
  3  4  1  0
  4  5  1  0
  5  6  1  0
  6  7  1  1
  7  8  1  0
  8  9  1  0
  9 10  2  0
  9 11  1  0
 11 12  1  0
 12 13  1  0
 13 14  1  0
 14 15  1  0
 14 16  2  0
 12 17  1  0
 17 18  2  0
 18 19  1  0
 19 20  2  0
 20 21  1  0
 20 22  1  0
 22 23  2  0
  6 24  1  0
  6 25  1  0
 25 26  1  0
 24  2  1  0
 26  2  1  0
 23 17  1  0
  1 27  1  0
  1 28  1  0
  1 29  1  0
  3 30  1  0
  3 31  1  0
  4 32  1  0
  4 33  1  0
  5 34  1  0
  5 35  1  0
  7 36  1  0
  7 37  1  0
  8 38  1  0
 11 39  1  0
 11 40  1  0
 12 41  1  1
 13 42  1  0
 15 43  1  0
 15 44  1  0
 18 45  1  0
 19 46  1  0
 22 47  1  0
 23 48  1  0
 24 49  1  0
 24 50  1  0
 26 51  1  0
 26 52  1  0
M  END
$$$$
mol_21
     RDKit          3D

 58 59  0  0  0  0  0  0  0  0999 V2000
    6.1745   -0.9165    1.2371 C   0  0  0  0  0  0  0  0  0  0  0  0
    5.0105   -0.6949    0.3616 N   0  0  0  0  0  0  0  0  0  0  0  0
    5.2263    0.5063   -0.4970 C   0  0  0  0  0  0  0  0  0  0  0  0
    4.5194    0.4270   -1.8714 C   0  0  0  0  0  0  0  0  0  0  0  0
    3.2030   -0.3657   -1.8151 C   0  0  0  0  0  0  0  0  0  0  0  0
    2.2015    0.3893   -1.0514 N   0  0  0  0  0  0  0  0  0  0  0  0
    1.0216    0.9486   -1.6428 C   0  0  0  0  0  0  0  0  0  0  0  0
    0.8602    0.9271   -2.8930 O   0  0  0  0  0  0  0  0  0  0  0  0
   -0.0640    1.5119   -0.7704 C   0  0  0  0  0  0  0  0  0  0  0  0
   -1.1181    0.4413   -0.4320 C   0  0  2  0  0  0  0  0  0  0  0  0
   -2.1958    1.0397    0.3630 N   0  0  0  0  0  0  0  0  0  0  0  0
   -3.5689    1.0467   -0.0504 C   0  0  0  0  0  0  0  0  0  0  0  0
   -3.8933    0.6102   -1.1888 O   0  0  0  0  0  0  0  0  0  0  0  0
   -4.5369    1.5420    0.8352 O   0  0  0  0  0  0  0  0  0  0  0  0
   -5.9456    1.6506    0.5776 C   0  0  0  0  0  0  0  0  0  0  0  0
   -6.5914    2.2464    1.8389 C   0  0  0  0  0  0  0  0  0  0  0  0
   -6.5639    0.2624    0.3126 C   0  0  0  0  0  0  0  0  0  0  0  0
   -6.2053    2.5965   -0.6118 C   0  0  0  0  0  0  0  0  0  0  0  0
   -0.5214   -0.7334    0.3203 C   0  0  0  0  0  0  0  0  0  0  0  0
    0.1061   -0.5505    1.5673 C   0  0  0  0  0  0  0  0  0  0  0  0
    0.6794   -1.6368    2.2358 C   0  0  0  0  0  0  0  0  0  0  0  0
    0.6201   -2.9158    1.6761 C   0  0  0  0  0  0  0  0  0  0  0  0
   -0.0118   -3.1123    0.4465 C   0  0  0  0  0  0  0  0  0  0  0  0
   -0.0655   -4.3552   -0.0970 F   0  0  0  0  0  0  0  0  0  0  0  0
   -0.5778   -2.0280   -0.2306 C   0  0  0  0  0  0  0  0  0  0  0  0
    3.4032   -1.7754   -1.2024 C   0  0  0  0  0  0  0  0  0  0  0  0
    4.7302   -1.9119   -0.4312 C   0  0  0  0  0  0  0  0  0  0  0  0
    7.0782   -1.1799    0.6409 H   0  0  0  0  0  0  0  0  0  0  0  0
    6.3942   -0.0016    1.8278 H   0  0  0  0  0  0  0  0  0  0  0  0
    5.9672   -1.7382    1.9588 H   0  0  0  0  0  0  0  0  0  0  0  0
    4.1894   -0.5186    0.9915 H   0  0  0  0  0  0  0  0  0  0  0  0
    6.3126    0.6798   -0.6922 H   0  0  0  0  0  0  0  0  0  0  0  0
    4.8529    1.4086    0.0410 H   0  0  0  0  0  0  0  0  0  0  0  0
    5.1996   -0.0694   -2.6001 H   0  0  0  0  0  0  0  0  0  0  0  0
    4.3235    1.4521   -2.2557 H   0  0  0  0  0  0  0  0  0  0  0  0
    2.8523   -0.5018   -2.8654 H   0  0  0  0  0  0  0  0  0  0  0  0
    2.3473    0.5211   -0.0250 H   0  0  0  0  0  0  0  0  0  0  0  0
   -0.5601    2.3523   -1.3082 H   0  0  0  0  0  0  0  0  0  0  0  0
    0.3784    1.9382    0.1568 H   0  0  0  0  0  0  0  0  0  0  0  0
   -1.5284    0.0788   -1.4004 H   0  0  0  0  0  0  0  0  0  0  0  0
   -1.9620    1.4654    1.2920 H   0  0  0  0  0  0  0  0  0  0  0  0
   -7.6858    2.3787    1.7027 H   0  0  0  0  0  0  0  0  0  0  0  0
   -6.4210    1.5803    2.7139 H   0  0  0  0  0  0  0  0  0  0  0  0
   -6.1406    3.2369    2.0688 H   0  0  0  0  0  0  0  0  0  0  0  0
   -6.3121   -0.4359    1.1426 H   0  0  0  0  0  0  0  0  0  0  0  0
   -7.6693    0.3360    0.2332 H   0  0  0  0  0  0  0  0  0  0  0  0
   -6.1920   -0.1731   -0.6370 H   0  0  0  0  0  0  0  0  0  0  0  0
   -5.8319    2.1607   -1.5616 H   0  0  0  0  0  0  0  0  0  0  0  0
   -5.6945    3.5704   -0.4469 H   0  0  0  0  0  0  0  0  0  0  0  0
   -7.2946    2.7833   -0.7321 H   0  0  0  0  0  0  0  0  0  0  0  0
    0.1651    0.4315    2.0180 H   0  0  0  0  0  0  0  0  0  0  0  0
    1.1704   -1.4844    3.1872 H   0  0  0  0  0  0  0  0  0  0  0  0
    1.0606   -3.7571    2.1986 H   0  0  0  0  0  0  0  0  0  0  0  0
   -1.0569   -2.1977   -1.1874 H   0  0  0  0  0  0  0  0  0  0  0  0
    2.5600   -2.0216   -0.5165 H   0  0  0  0  0  0  0  0  0  0  0  0
    3.3866   -2.5403   -2.0114 H   0  0  0  0  0  0  0  0  0  0  0  0
    4.6555   -2.8066    0.2344 H   0  0  0  0  0  0  0  0  0  0  0  0
    5.5590   -2.0976   -1.1553 H   0  0  0  0  0  0  0  0  0  0  0  0
  1  2  1  0
  2  3  1  0
  3  4  1  0
  4  5  1  0
  5  6  1  0
  6  7  1  0
  7  8  2  0
  7  9  1  0
  9 10  1  0
 10 11  1  0
 11 12  1  0
 12 13  2  0
 12 14  1  0
 14 15  1  0
 15 16  1  0
 15 17  1  0
 15 18  1  0
 10 19  1  0
 19 20  2  0
 20 21  1  0
 21 22  2  0
 22 23  1  0
 23 24  1  0
 23 25  2  0
  5 26  1  0
 26 27  1  0
 27  2  1  0
 25 19  1  0
  1 28  1  0
  1 29  1  0
  1 30  1  0
  2 31  1  0
  3 32  1  0
  3 33  1  0
  4 34  1  0
  4 35  1  0
  5 36  1  0
  6 37  1  0
  9 38  1  0
  9 39  1  0
 10 40  1  6
 11 41  1  0
 16 42  1  0
 16 43  1  0
 16 44  1  0
 17 45  1  0
 17 46  1  0
 17 47  1  0
 18 48  1  0
 18 49  1  0
 18 50  1  0
 20 51  1  0
 21 52  1  0
 22 53  1  0
 25 54  1  0
 26 55  1  0
 26 56  1  0
 27 57  1  0
 27 58  1  0
M  CHG  1   2   1
M  END
$$$$
mol_22
     RDKit          3D

 41 41  0  0  0  0  0  0  0  0999 V2000
   -4.5248    0.5184   -1.4048 C   0  0  0  0  0  0  0  0  0  0  0  0
   -4.3332   -0.0489    0.0189 C   0  0  0  0  0  0  0  0  0  0  0  0
   -5.4034    0.5946    0.9314 C   0  0  0  0  0  0  0  0  0  0  0  0
   -2.9974    0.3090    0.5438 N   0  0  0  0  0  0  0  0  0  0  0  0
   -1.7344   -0.0051   -0.0711 C   0  0  0  0  0  0  0  0  0  0  0  0
   -1.6872   -0.5300   -1.2156 O   0  0  0  0  0  0  0  0  0  0  0  0
   -0.5157    0.2988    0.6238 N   0  0  0  0  0  0  0  0  0  0  0  0
    0.8062   -0.0233    0.0740 C   0  0  2  0  0  0  0  0  0  0  0  0
    1.0944   -1.5211    0.2862 C   0  0  0  0  0  0  0  0  0  0  0  0
    2.2036   -1.9172   -0.4724 O   0  0  0  0  0  0  0  0  0  0  0  0
    1.8748    0.8713    0.7439 C   0  0  0  0  0  0  0  0  0  0  0  0
    3.2254    0.7683    0.0785 C   0  0  0  0  0  0  0  0  0  0  0  0
    4.3092    0.1823    0.7541 C   0  0  0  0  0  0  0  0  0  0  0  0
    5.5593    0.0889    0.1349 C   0  0  0  0  0  0  0  0  0  0  0  0
    5.7413    0.5861   -1.1626 C   0  0  0  0  0  0  0  0  0  0  0  0
    6.9821    0.4978   -1.7896 O   0  0  0  0  0  0  0  0  0  0  0  0
    4.6680    1.1781   -1.8355 C   0  0  0  0  0  0  0  0  0  0  0  0
    3.4167    1.2722   -1.2191 C   0  0  0  0  0  0  0  0  0  0  0  0
   -4.5243   -1.5899    0.0324 C   0  0  0  0  0  0  0  0  0  0  0  0
   -3.6695   -2.2133   -0.8576 F   0  0  0  0  0  0  0  0  0  0  0  0
   -4.2714   -2.0870    1.2995 F   0  0  0  0  0  0  0  0  0  0  0  0
   -5.8221   -1.9209   -0.3201 F   0  0  0  0  0  0  0  0  0  0  0  0
   -3.8863    0.0011   -2.1480 H   0  0  0  0  0  0  0  0  0  0  0  0
   -5.5780    0.3950   -1.7380 H   0  0  0  0  0  0  0  0  0  0  0  0
   -4.2770    1.6015   -1.4231 H   0  0  0  0  0  0  0  0  0  0  0  0
   -6.4305    0.3749    0.5684 H   0  0  0  0  0  0  0  0  0  0  0  0
   -5.3124    0.2146    1.9717 H   0  0  0  0  0  0  0  0  0  0  0  0
   -5.2759    1.6986    0.9565 H   0  0  0  0  0  0  0  0  0  0  0  0
   -2.9461    0.8231    1.4533 H   0  0  0  0  0  0  0  0  0  0  0  0
   -0.5821    0.7595    1.5601 H   0  0  0  0  0  0  0  0  0  0  0  0
    0.7972    0.1943   -1.0172 H   0  0  0  0  0  0  0  0  0  0  0  0
    0.2119   -2.1190   -0.0326 H   0  0  0  0  0  0  0  0  0  0  0  0
    1.2772   -1.7229    1.3659 H   0  0  0  0  0  0  0  0  0  0  0  0
    2.3573   -2.8739   -0.2584 H   0  0  0  0  0  0  0  0  0  0  0  0
    1.5463    1.9327    0.6957 H   0  0  0  0  0  0  0  0  0  0  0  0
    1.9489    0.6100    1.8229 H   0  0  0  0  0  0  0  0  0  0  0  0
    4.1855   -0.2104    1.7557 H   0  0  0  0  0  0  0  0  0  0  0  0
    6.3850   -0.3698    0.6638 H   0  0  0  0  0  0  0  0  0  0  0  0
    7.7793    0.0749   -1.3286 H   0  0  0  0  0  0  0  0  0  0  0  0
    4.8041    1.5670   -2.8366 H   0  0  0  0  0  0  0  0  0  0  0  0
    2.5978    1.7398   -1.7516 H   0  0  0  0  0  0  0  0  0  0  0  0
  1  2  1  0
  2  3  1  0
  2  4  1  0
  4  5  1  0
  5  6  2  0
  5  7  1  0
  7  8  1  0
  8  9  1  0
  9 10  1  0
  8 11  1  0
 11 12  1  0
 12 13  2  0
 13 14  1  0
 14 15  2  0
 15 16  1  0
 15 17  1  0
 17 18  2  0
  2 19  1  0
 19 20  1  0
 19 21  1  0
 19 22  1  0
 18 12  1  0
  1 23  1  0
  1 24  1  0
  1 25  1  0
  3 26  1  0
  3 27  1  0
  3 28  1  0
  4 29  1  0
  7 30  1  0
  8 31  1  6
  9 32  1  0
  9 33  1  0
 10 34  1  0
 11 35  1  0
 11 36  1  0
 13 37  1  0
 14 38  1  0
 16 39  1  0
 17 40  1  0
 18 41  1  0
M  END
$$$$
mol_23
     RDKit          3D

 63 65  0  0  0  0  0  0  0  0999 V2000
    7.0223   -0.7026    0.1220 C   0  0  0  0  0  0  0  0  0  0  0  0
    5.7758    0.1140    0.5167 C   0  0  2  0  0  0  0  0  0  0  0  0
    4.5431   -0.4960   -0.1905 C   0  0  0  0  0  0  0  0  0  0  0  0
    3.2695    0.2799    0.1596 C   0  0  2  0  0  0  0  0  0  0  0  0
    2.1340   -0.2562   -0.5968 N   0  0  0  0  0  0  0  0  0  0  0  0
    0.9253   -0.7180    0.0232 C   0  0  0  0  0  0  0  0  0  0  0  0
    0.7817   -0.6365    1.2736 O   0  0  0  0  0  0  0  0  0  0  0  0
   -0.1235   -1.2703   -0.7852 N   0  0  0  0  0  0  0  0  0  0  0  0
   -1.4166   -1.6714   -0.2224 C   0  0  2  0  0  0  0  0  0  0  0  0
   -2.2608   -2.4414   -1.2603 C   0  0  0  0  0  0  0  0  0  0  0  0
   -3.5941   -2.8730   -0.7007 C   0  0  0  0  0  0  0  0  0  0  0  0
   -3.6583   -3.8633    0.2939 C   0  0  0  0  0  0  0  0  0  0  0  0
   -4.8933   -4.2558    0.8199 C   0  0  0  0  0  0  0  0  0  0  0  0
   -6.0721   -3.6712    0.3501 C   0  0  0  0  0  0  0  0  0  0  0  0
   -6.0183   -2.6934   -0.6465 C   0  0  0  0  0  0  0  0  0  0  0  0
   -4.7854   -2.2960   -1.1730 C   0  0  0  0  0  0  0  0  0  0  0  0
   -2.1513   -0.4784    0.3683 C   0  0  0  0  0  0  0  0  0  0  0  0
   -2.3666   -0.4949    1.6122 O   0  0  0  0  0  0  0  0  0  0  0  0
   -2.6145    0.6580   -0.4062 N   0  0  0  0  0  0  0  0  0  0  0  0
   -2.2786    0.8648   -1.8202 C   0  0  0  0  0  0  0  0  0  0  0  0
   -3.5524    1.5694    0.1944 C   0  0  0  0  0  0  0  0  0  0  0  0
   -3.2402    2.9342    0.3106 C   0  0  0  0  0  0  0  0  0  0  0  0
   -4.1588    3.8197    0.8823 C   0  0  0  0  0  0  0  0  0  0  0  0
   -5.3931    3.3499    1.3432 C   0  0  0  0  0  0  0  0  0  0  0  0
   -5.7094    1.9922    1.2362 C   0  0  0  0  0  0  0  0  0  0  0  0
   -4.7930    1.1032    0.6654 C   0  0  0  0  0  0  0  0  0  0  0  0
    3.4556    1.7625   -0.1696 C   0  0  0  0  0  0  0  0  0  0  0  0
    4.6947    2.3121    0.5466 C   0  0  0  0  0  0  0  0  0  0  0  0
    5.9172    1.5607    0.1741 N   0  0  1  0  0  0  0  0  0  0  0  0
    7.0757    2.1751    0.8559 C   0  0  0  0  0  0  0  0  0  0  0  0
    6.8361   -1.7866    0.2691 H   0  0  0  0  0  0  0  0  0  0  0  0
    7.8873   -0.4388    0.7628 H   0  0  0  0  0  0  0  0  0  0  0  0
    7.2853   -0.5276   -0.9429 H   0  0  0  0  0  0  0  0  0  0  0  0
    5.6335   -0.0018    1.6165 H   0  0  0  0  0  0  0  0  0  0  0  0
    4.4143   -1.5557    0.1228 H   0  0  0  0  0  0  0  0  0  0  0  0
    4.6987   -0.4795   -1.2925 H   0  0  0  0  0  0  0  0  0  0  0  0
    3.0903    0.1812    1.2535 H   0  0  0  0  0  0  0  0  0  0  0  0
    2.1964   -0.2783   -1.6400 H   0  0  0  0  0  0  0  0  0  0  0  0
    0.0703   -1.4304   -1.8012 H   0  0  0  0  0  0  0  0  0  0  0  0
   -1.2029   -2.3873    0.6029 H   0  0  0  0  0  0  0  0  0  0  0  0
   -2.4004   -1.8314   -2.1743 H   0  0  0  0  0  0  0  0  0  0  0  0
   -1.7042   -3.3489   -1.5809 H   0  0  0  0  0  0  0  0  0  0  0  0
   -2.7539   -4.3332    0.6572 H   0  0  0  0  0  0  0  0  0  0  0  0
   -4.9378   -5.0151    1.5899 H   0  0  0  0  0  0  0  0  0  0  0  0
   -7.0264   -3.9740    0.7589 H   0  0  0  0  0  0  0  0  0  0  0  0
   -6.9326   -2.2416   -1.0094 H   0  0  0  0  0  0  0  0  0  0  0  0
   -4.7610   -1.5329   -1.9411 H   0  0  0  0  0  0  0  0  0  0  0  0
   -2.3174    1.9423   -2.0800 H   0  0  0  0  0  0  0  0  0  0  0  0
   -3.0145    0.3406   -2.4622 H   0  0  0  0  0  0  0  0  0  0  0  0
   -1.2533    0.5271   -2.0524 H   0  0  0  0  0  0  0  0  0  0  0  0
   -2.2843    3.3088   -0.0343 H   0  0  0  0  0  0  0  0  0  0  0  0
   -3.9134    4.8703    0.9697 H   0  0  0  0  0  0  0  0  0  0  0  0
   -6.1021    4.0380    1.7837 H   0  0  0  0  0  0  0  0  0  0  0  0
   -6.6652    1.6285    1.5936 H   0  0  0  0  0  0  0  0  0  0  0  0
   -5.0505    0.0549    0.5840 H   0  0  0  0  0  0  0  0  0  0  0  0
    2.5585    2.3311    0.1618 H   0  0  0  0  0  0  0  0  0  0  0  0
    3.5690    1.9014   -1.2682 H   0  0  0  0  0  0  0  0  0  0  0  0
    4.8003    3.3834    0.2615 H   0  0  0  0  0  0  0  0  0  0  0  0
    4.5305    2.2707    1.6493 H   0  0  0  0  0  0  0  0  0  0  0  0
    6.0637    1.6603   -0.8598 H   0  0  0  0  0  0  0  0  0  0  0  0
    8.0298    1.8036    0.4251 H   0  0  0  0  0  0  0  0  0  0  0  0
    7.0852    3.2779    0.7099 H   0  0  0  0  0  0  0  0  0  0  0  0
    7.0562    1.9653    1.9487 H   0  0  0  0  0  0  0  0  0  0  0  0
  1  2  1  0
  2  3  1  0
  3  4  1  0
  4  5  1  0
  5  6  1  0
  6  7  2  0
  6  8  1  0
  8  9  1  0
  9 10  1  0
 10 11  1  0
 11 12  2  0
 12 13  1  0
 13 14  2  0
 14 15  1  0
 15 16  2  0
  9 17  1  0
 17 18  2  0
 17 19  1  0
 19 20  1  0
 19 21  1  0
 21 22  2  0
 22 23  1  0
 23 24  2  0
 24 25  1  0
 25 26  2  0
  4 27  1  0
 27 28  1  0
 28 29  1  0
 29 30  1  0
 29  2  1  0
 16 11  1  0
 26 21  1  0
  1 31  1  0
  1 32  1  0
  1 33  1  0
  2 34  1  1
  3 35  1  0
  3 36  1  0
  4 37  1  1
  5 38  1  0
  8 39  1  0
  9 40  1  1
 10 41  1  0
 10 42  1  0
 12 43  1  0
 13 44  1  0
 14 45  1  0
 15 46  1  0
 16 47  1  0
 20 48  1  0
 20 49  1  0
 20 50  1  0
 22 51  1  0
 23 52  1  0
 24 53  1  0
 25 54  1  0
 26 55  1  0
 27 56  1  0
 27 57  1  0
 28 58  1  0
 28 59  1  0
 29 60  1  6
 30 61  1  0
 30 62  1  0
 30 63  1  0
M  CHG  1  29   1
M  END
$$$$
mol_24
     RDKit          3D

 50 50  0  0  0  0  0  0  0  0999 V2000
   -2.7000    4.1434   -0.1934 C   0  0  0  0  0  0  0  0  0  0  0  0
   -1.9327    2.9143   -0.0385 N   0  0  0  0  0  0  0  0  0  0  0  0
   -0.9132    2.5404   -0.9787 C   0  0  0  0  0  0  0  0  0  0  0  0
   -0.6658    3.2907   -1.9621 O   0  0  0  0  0  0  0  0  0  0  0  0
   -0.1541    1.2384   -0.8451 C   0  0  1  0  0  0  0  0  0  0  0  0
    0.3215    0.9924    0.6045 C   0  0  0  0  0  0  0  0  0  0  0  0
    1.2556   -0.1318    0.6708 N   0  0  0  0  0  0  0  0  0  0  0  0
    2.6074   -0.0480    0.1979 C   0  0  0  0  0  0  0  0  0  0  0  0
    3.0525    1.0498   -0.2311 O   0  0  0  0  0  0  0  0  0  0  0  0
    3.4379   -1.2233    0.2188 N   0  0  0  0  0  0  0  0  0  0  0  0
    4.8585   -1.2931   -0.1873 C   0  0  0  0  0  0  0  0  0  0  0  0
    5.0376   -0.7621   -1.6268 C   0  0  0  0  0  0  0  0  0  0  0  0
    5.2962   -2.7764   -0.1741 C   0  0  0  0  0  0  0  0  0  0  0  0
    5.7446   -0.5001    0.8108 C   0  0  0  0  0  0  0  0  0  0  0  0
    7.0862   -0.6791    0.5164 F   0  0  0  0  0  0  0  0  0  0  0  0
    5.5141   -0.9417    2.1025 F   0  0  0  0  0  0  0  0  0  0  0  0
    5.4746    0.8548    0.7599 F   0  0  0  0  0  0  0  0  0  0  0  0
   -0.9443    0.0494   -1.4423 C   0  0  0  0  0  0  0  0  0  0  0  0
   -2.2699   -0.2111   -0.7661 C   0  0  0  0  0  0  0  0  0  0  0  0
   -3.4366    0.4185   -1.2280 C   0  0  0  0  0  0  0  0  0  0  0  0
   -4.6649    0.1773   -0.6061 C   0  0  0  0  0  0  0  0  0  0  0  0
   -5.7779    0.8080   -1.0568 F   0  0  0  0  0  0  0  0  0  0  0  0
   -4.7515   -0.7085    0.4755 C   0  0  0  0  0  0  0  0  0  0  0  0
   -6.0048   -0.9177    1.0705 O   0  0  0  0  0  0  0  0  0  0  0  0
   -6.2360   -1.7864    2.1747 C   0  0  0  0  0  0  0  0  0  0  0  0
   -3.5860   -1.3576    0.9258 C   0  0  0  0  0  0  0  0  0  0  0  0
   -2.3580   -1.1142    0.3044 C   0  0  0  0  0  0  0  0  0  0  0  0
   -3.2413    4.1290   -1.1628 H   0  0  0  0  0  0  0  0  0  0  0  0
   -3.4408    4.2322    0.6291 H   0  0  0  0  0  0  0  0  0  0  0  0
   -2.0186    5.0194   -0.1597 H   0  0  0  0  0  0  0  0  0  0  0  0
   -2.1664    2.2871    0.7622 H   0  0  0  0  0  0  0  0  0  0  0  0
    0.7616    1.3431   -1.4681 H   0  0  0  0  0  0  0  0  0  0  0  0
   -0.5426    0.7772    1.2660 H   0  0  0  0  0  0  0  0  0  0  0  0
    0.8178    1.9041    1.0037 H   0  0  0  0  0  0  0  0  0  0  0  0
    0.9345   -1.0171    1.1230 H   0  0  0  0  0  0  0  0  0  0  0  0
    2.9742   -2.1020    0.5458 H   0  0  0  0  0  0  0  0  0  0  0  0
    6.0662   -0.9660   -1.9954 H   0  0  0  0  0  0  0  0  0  0  0  0
    4.8818    0.3331   -1.6887 H   0  0  0  0  0  0  0  0  0  0  0  0
    4.3162   -1.2580   -2.3115 H   0  0  0  0  0  0  0  0  0  0  0  0
    6.3547   -2.8893   -0.4931 H   0  0  0  0  0  0  0  0  0  0  0  0
    5.1911   -3.2080    0.8446 H   0  0  0  0  0  0  0  0  0  0  0  0
    4.6624   -3.3720   -0.8665 H   0  0  0  0  0  0  0  0  0  0  0  0
   -1.1171    0.2411   -2.5245 H   0  0  0  0  0  0  0  0  0  0  0  0
   -0.3184   -0.8688   -1.4004 H   0  0  0  0  0  0  0  0  0  0  0  0
   -3.3916    1.1071   -2.0629 H   0  0  0  0  0  0  0  0  0  0  0  0
   -7.3127   -1.7574    2.4396 H   0  0  0  0  0  0  0  0  0  0  0  0
   -5.6444   -1.4527    3.0533 H   0  0  0  0  0  0  0  0  0  0  0  0
   -5.9644   -2.8286    1.9040 H   0  0  0  0  0  0  0  0  0  0  0  0
   -3.6183   -2.0524    1.7537 H   0  0  0  0  0  0  0  0  0  0  0  0
   -1.4746   -1.6273    0.6621 H   0  0  0  0  0  0  0  0  0  0  0  0
  1  2  1  0
  2  3  1  0
  3  4  2  0
  3  5  1  0
  5  6  1  0
  6  7  1  0
  7  8  1  0
  8  9  2  0
  8 10  1  0
 10 11  1  0
 11 12  1  0
 11 13  1  0
 11 14  1  0
 14 15  1  0
 14 16  1  0
 14 17  1  0
  5 18  1  0
 18 19  1  0
 19 20  2  0
 20 21  1  0
 21 22  1  0
 21 23  2  0
 23 24  1  0
 24 25  1  0
 23 26  1  0
 26 27  2  0
 27 19  1  0
  1 28  1  0
  1 29  1  0
  1 30  1  0
  2 31  1  0
  5 32  1  6
  6 33  1  0
  6 34  1  0
  7 35  1  0
 10 36  1  0
 12 37  1  0
 12 38  1  0
 12 39  1  0
 13 40  1  0
 13 41  1  0
 13 42  1  0
 18 43  1  0
 18 44  1  0
 20 45  1  0
 25 46  1  0
 25 47  1  0
 25 48  1  0
 26 49  1  0
 27 50  1  0
M  END
$$$$
mol_25
     RDKit          3D

 48 49  0  0  0  0  0  0  0  0999 V2000
    8.6742    0.6538   -1.1984 C   0  0  0  0  0  0  0  0  0  0  0  0
    7.2583    0.5844   -1.7695 C   0  0  0  0  0  0  0  0  0  0  0  0
    6.2061    0.3382   -0.7202 C   0  0  0  0  0  0  0  0  0  0  0  0
    6.5251    0.2498    0.4992 O   0  0  0  0  0  0  0  0  0  0  0  0
    4.8286    0.2457   -1.1196 N   0  0  0  0  0  0  0  0  0  0  0  0
    3.7552   -0.1451   -0.2442 C   0  0  0  0  0  0  0  0  0  0  0  0
    3.9403   -1.1137    0.7573 C   0  0  0  0  0  0  0  0  0  0  0  0
    2.8802   -1.4765    1.5891 C   0  0  0  0  0  0  0  0  0  0  0  0
    1.6205   -0.8993    1.4167 C   0  0  0  0  0  0  0  0  0  0  0  0
    1.4004    0.0386    0.3912 C   0  0  0  0  0  0  0  0  0  0  0  0
    0.0636    0.6505    0.1850 C   0  0  0  0  0  0  0  0  0  0  0  0
   -0.0293    1.7331   -0.4538 O   0  0  0  0  0  0  0  0  0  0  0  0
   -1.1259    0.0207    0.6846 N   0  0  0  0  0  0  0  0  0  0  0  0
   -2.4468    0.6503    0.5876 C   0  0  2  0  0  0  0  0  0  0  0  0
   -3.3151    0.2586    1.8024 C   0  0  0  0  0  0  0  0  0  0  0  0
   -4.2255   -0.9318    1.4731 C   0  0  0  0  0  0  0  0  0  0  0  0
   -5.1848   -0.6251    0.3753 N   0  0  1  0  0  0  0  0  0  0  0  0
   -6.4526   -0.1164    0.9368 C   0  0  0  0  0  0  0  0  0  0  0  0
   -4.6469    0.3208   -0.6556 C   0  0  2  0  0  0  0  0  0  0  0  0
   -5.2536    0.0410   -2.0429 C   0  0  0  0  0  0  0  0  0  0  0  0
   -3.1075    0.2586   -0.7508 C   0  0  0  0  0  0  0  0  0  0  0  0
    2.4797    0.4102   -0.4319 C   0  0  0  0  0  0  0  0  0  0  0  0
    9.4014    0.7926   -2.0260 H   0  0  0  0  0  0  0  0  0  0  0  0
    8.7652    1.5127   -0.4998 H   0  0  0  0  0  0  0  0  0  0  0  0
    8.9231   -0.2871   -0.6625 H   0  0  0  0  0  0  0  0  0  0  0  0
    7.0331    1.5421   -2.2869 H   0  0  0  0  0  0  0  0  0  0  0  0
    7.2129   -0.2347   -2.5192 H   0  0  0  0  0  0  0  0  0  0  0  0
    4.5822    0.5725   -2.0817 H   0  0  0  0  0  0  0  0  0  0  0  0
    4.8954   -1.6046    0.8868 H   0  0  0  0  0  0  0  0  0  0  0  0
    3.0352   -2.2107    2.3690 H   0  0  0  0  0  0  0  0  0  0  0  0
    0.8292   -1.1815    2.0968 H   0  0  0  0  0  0  0  0  0  0  0  0
   -1.0900   -0.9907    0.9407 H   0  0  0  0  0  0  0  0  0  0  0  0
   -2.3302    1.7571    0.6157 H   0  0  0  0  0  0  0  0  0  0  0  0
   -2.6742    0.0098    2.6760 H   0  0  0  0  0  0  0  0  0  0  0  0
   -3.9488    1.1223    2.1020 H   0  0  0  0  0  0  0  0  0  0  0  0
   -4.7527   -1.2527    2.4012 H   0  0  0  0  0  0  0  0  0  0  0  0
   -3.5837   -1.7944    1.1785 H   0  0  0  0  0  0  0  0  0  0  0  0
   -5.4072   -1.5399   -0.0843 H   0  0  0  0  0  0  0  0  0  0  0  0
   -7.1888    0.0953    0.1340 H   0  0  0  0  0  0  0  0  0  0  0  0
   -6.9155   -0.8745    1.6041 H   0  0  0  0  0  0  0  0  0  0  0  0
   -6.2882    0.8156    1.5174 H   0  0  0  0  0  0  0  0  0  0  0  0
   -4.9090    1.3722   -0.3902 H   0  0  0  0  0  0  0  0  0  0  0  0
   -4.9731   -0.9739   -2.3898 H   0  0  0  0  0  0  0  0  0  0  0  0
   -4.8863    0.7833   -2.7803 H   0  0  0  0  0  0  0  0  0  0  0  0
   -6.3589    0.1136   -2.0172 H   0  0  0  0  0  0  0  0  0  0  0  0
   -2.7431    0.9476   -1.5451 H   0  0  0  0  0  0  0  0  0  0  0  0
   -2.8068   -0.7747   -1.0396 H   0  0  0  0  0  0  0  0  0  0  0  0
    2.3342    1.1362   -1.2230 H   0  0  0  0  0  0  0  0  0  0  0  0
  1  2  1  0
  2  3  1  0
  3  4  2  0
  3  5  1  0
  5  6  1  0
  6  7  2  0
  7  8  1  0
  8  9  2  0
  9 10  1  0
 10 11  1  0
 11 12  2  0
 11 13  1  0
 13 14  1  0
 14 15  1  0
 15 16  1  0
 16 17  1  0
 17 18  1  0
 17 19  1  0
 19 20  1  0
 19 21  1  0
 10 22  2  0
 22  6  1  0
 21 14  1  0
  1 23  1  0
  1 24  1  0
  1 25  1  0
  2 26  1  0
  2 27  1  0
  5 28  1  0
  7 29  1  0
  8 30  1  0
  9 31  1  0
 13 32  1  0
 14 33  1  6
 15 34  1  0
 15 35  1  0
 16 36  1  0
 16 37  1  0
 17 38  1  6
 18 39  1  0
 18 40  1  0
 18 41  1  0
 19 42  1  1
 20 43  1  0
 20 44  1  0
 20 45  1  0
 21 46  1  0
 21 47  1  0
 22 48  1  0
M  CHG  1  17   1
M  END
$$$$
mol_26
     RDKit          3D

 53 54  0  0  0  0  0  0  0  0999 V2000
   -4.3301   -0.2854   -0.7797 C   0  0  0  0  0  0  0  0  0  0  0  0
   -3.3776    0.8738   -0.8055 C   0  0  0  0  0  0  0  0  0  0  0  0
   -3.4599    1.6883   -1.7185 O   0  0  0  0  0  0  0  0  0  0  0  0
   -2.2783    0.9825    0.2345 C   0  0  2  0  0  0  0  0  0  0  0  0
   -1.7157    2.4169    0.3771 C   0  0  0  0  0  0  0  0  0  0  0  0
   -2.7805    3.4202    0.7661 C   0  0  0  0  0  0  0  0  0  0  0  0
   -3.4691    3.2992    1.9872 C   0  0  0  0  0  0  0  0  0  0  0  0
   -4.4880    4.1958    2.3184 C   0  0  0  0  0  0  0  0  0  0  0  0
   -4.8122    5.2344    1.4443 C   0  0  0  0  0  0  0  0  0  0  0  0
   -4.1022    5.3915    0.2474 C   0  0  0  0  0  0  0  0  0  0  0  0
   -3.0877    4.4919   -0.0900 C   0  0  0  0  0  0  0  0  0  0  0  0
   -1.1965    0.0651   -0.1362 N   0  0  0  0  0  0  0  0  0  0  0  0
   -0.8503   -1.0760    0.6640 C   0  0  0  0  0  0  0  0  0  0  0  0
   -1.0238   -1.0555    1.9156 O   0  0  0  0  0  0  0  0  0  0  0  0
   -0.2525   -2.2973    0.0210 C   0  0  0  0  0  0  0  0  0  0  0  0
    1.1686   -2.4753    0.3942 N   0  0  1  0  0  0  0  0  0  0  0  0
    1.6080   -3.8488    0.0557 C   0  0  0  0  0  0  0  0  0  0  0  0
    3.0628   -4.0815    0.4775 C   0  0  0  0  0  0  0  0  0  0  0  0
    3.9858   -3.0539   -0.1820 C   0  0  0  0  0  0  0  0  0  0  0  0
    3.5035   -1.6185    0.1109 C   0  0  1  0  0  0  0  0  0  0  0  0
    4.3754   -0.5386   -0.5866 C   0  0  1  0  0  0  0  0  0  0  0  0
    5.8019   -0.4909   -0.0296 C   0  0  0  0  0  0  0  0  0  0  0  0
    4.4339   -0.7602   -1.9758 O   0  0  0  0  0  0  0  0  0  0  0  0
    2.0195   -1.4760   -0.2986 C   0  0  0  0  0  0  0  0  0  0  0  0
   -4.1606   -0.9185    0.1200 H   0  0  0  0  0  0  0  0  0  0  0  0
   -4.1702   -0.9049   -1.6859 H   0  0  0  0  0  0  0  0  0  0  0  0
   -5.3729    0.0871   -0.7656 H   0  0  0  0  0  0  0  0  0  0  0  0
   -2.7084    0.6806    1.2140 H   0  0  0  0  0  0  0  0  0  0  0  0
   -0.9160    2.4309    1.1521 H   0  0  0  0  0  0  0  0  0  0  0  0
   -1.2372    2.7128   -0.5854 H   0  0  0  0  0  0  0  0  0  0  0  0
   -3.2229    2.5068    2.6846 H   0  0  0  0  0  0  0  0  0  0  0  0
   -5.0290    4.0856    3.2494 H   0  0  0  0  0  0  0  0  0  0  0  0
   -5.6113    5.9191    1.6919 H   0  0  0  0  0  0  0  0  0  0  0  0
   -4.3506    6.1976   -0.4288 H   0  0  0  0  0  0  0  0  0  0  0  0
   -2.5543    4.6203   -1.0272 H   0  0  0  0  0  0  0  0  0  0  0  0
   -0.7705    0.1617   -1.0872 H   0  0  0  0  0  0  0  0  0  0  0  0
   -0.8572   -3.1785    0.3455 H   0  0  0  0  0  0  0  0  0  0  0  0
   -0.3599   -2.2266   -1.0891 H   0  0  0  0  0  0  0  0  0  0  0  0
    1.2622   -2.3499    1.4313 H   0  0  0  0  0  0  0  0  0  0  0  0
    0.9804   -4.5960    0.5911 H   0  0  0  0  0  0  0  0  0  0  0  0
    1.5032   -4.0360   -1.0377 H   0  0  0  0  0  0  0  0  0  0  0  0
    3.3782   -5.1056    0.1831 H   0  0  0  0  0  0  0  0  0  0  0  0
    3.1440   -4.0032    1.5846 H   0  0  0  0  0  0  0  0  0  0  0  0
    5.0070   -3.2039    0.2219 H   0  0  0  0  0  0  0  0  0  0  0  0
    4.0120   -3.2390   -1.2780 H   0  0  0  0  0  0  0  0  0  0  0  0
    3.5643   -1.4424    1.2102 H   0  0  0  0  0  0  0  0  0  0  0  0
    3.9228    0.4607   -0.3715 H   0  0  0  0  0  0  0  0  0  0  0  0
    6.3834   -1.3806   -0.3448 H   0  0  0  0  0  0  0  0  0  0  0  0
    6.3176    0.4119   -0.4214 H   0  0  0  0  0  0  0  0  0  0  0  0
    5.7914   -0.4295    1.0790 H   0  0  0  0  0  0  0  0  0  0  0  0
    3.7098   -0.2225   -2.3890 H   0  0  0  0  0  0  0  0  0  0  0  0
    1.9221   -1.5925   -1.4035 H   0  0  0  0  0  0  0  0  0  0  0  0
    1.6880   -0.4471   -0.0377 H   0  0  0  0  0  0  0  0  0  0  0  0
  1  2  1  0
  2  3  2  0
  2  4  1  0
  4  5  1  0
  5  6  1  0
  6  7  2  0
  7  8  1  0
  8  9  2  0
  9 10  1  0
 10 11  2  0
  4 12  1  0
 12 13  1  0
 13 14  2  0
 13 15  1  0
 15 16  1  0
 16 17  1  0
 17 18  1  0
 18 19  1  0
 19 20  1  0
 20 21  1  0
 21 22  1  0
 21 23  1  0
 20 24  1  0
 11  6  1  0
 24 16  1  0
  1 25  1  0
  1 26  1  0
  1 27  1  0
  4 28  1  1
  5 29  1  0
  5 30  1  0
  7 31  1  0
  8 32  1  0
  9 33  1  0
 10 34  1  0
 11 35  1  0
 12 36  1  0
 15 37  1  0
 15 38  1  0
 16 39  1  1
 17 40  1  0
 17 41  1  0
 18 42  1  0
 18 43  1  0
 19 44  1  0
 19 45  1  0
 20 46  1  1
 21 47  1  6
 22 48  1  0
 22 49  1  0
 22 50  1  0
 23 51  1  0
 24 52  1  0
 24 53  1  0
M  CHG  1  16   1
M  END
$$$$
mol_27
     RDKit          3D

 51 52  0  0  0  0  0  0  0  0999 V2000
    6.5437    0.0670   -1.0606 C   0  0  0  0  0  0  0  0  0  0  0  0
    5.4361    1.0427   -0.5988 C   0  0  0  0  0  0  0  0  0  0  0  0
    6.0846    2.0928    0.3336 C   0  0  0  0  0  0  0  0  0  0  0  0
    4.2996    0.3186    0.0599 N   0  0  0  0  0  0  0  0  0  0  0  0
    3.7394   -0.7288   -0.8470 C   0  0  0  0  0  0  0  0  0  0  0  0
    2.3054   -1.1809   -0.4908 C   0  0  0  0  0  0  0  0  0  0  0  0
    2.0100   -0.9556    0.9937 C   0  0  0  0  0  0  0  0  0  0  0  0
    0.6481   -1.4857    1.3699 C   0  0  0  0  0  0  0  0  0  0  0  0
    0.5635   -2.4066    2.2277 O   0  0  0  0  0  0  0  0  0  0  0  0
   -0.5433   -0.9601    0.7644 N   0  0  0  0  0  0  0  0  0  0  0  0
   -1.8673   -1.4565    1.1377 C   0  0  0  0  0  0  0  0  0  0  0  0
   -2.9684   -0.6921    0.3959 C   0  0  0  0  0  0  0  0  0  0  0  0
   -4.3570   -1.2276    0.7674 C   0  0  0  0  0  0  0  0  0  0  0  0
   -5.4452   -0.4268    0.0989 C   0  0  0  0  0  0  0  0  0  0  0  0
   -5.6257   -0.4988   -1.2934 C   0  0  0  0  0  0  0  0  0  0  0  0
   -6.6403    0.2369   -1.9130 C   0  0  0  0  0  0  0  0  0  0  0  0
   -7.4885    1.0482   -1.1477 C   0  0  0  0  0  0  0  0  0  0  0  0
   -8.5023    1.7853   -1.7534 O   0  0  0  0  0  0  0  0  0  0  0  0
   -7.3166    1.1188    0.2386 C   0  0  0  0  0  0  0  0  0  0  0  0
   -6.3018    0.3856    0.8607 C   0  0  0  0  0  0  0  0  0  0  0  0
    2.1545    0.5371    1.3485 C   0  0  0  0  0  0  0  0  0  0  0  0
    3.2244    1.2494    0.4918 C   0  0  0  0  0  0  0  0  0  0  0  0
    7.4210    0.6231   -1.4581 H   0  0  0  0  0  0  0  0  0  0  0  0
    6.8792   -0.5682   -0.2145 H   0  0  0  0  0  0  0  0  0  0  0  0
    6.1887   -0.5823   -1.8858 H   0  0  0  0  0  0  0  0  0  0  0  0
    5.0651    1.5802   -1.5010 H   0  0  0  0  0  0  0  0  0  0  0  0
    7.0714    2.4239   -0.0564 H   0  0  0  0  0  0  0  0  0  0  0  0
    6.2347    1.6743    1.3516 H   0  0  0  0  0  0  0  0  0  0  0  0
    5.4623    3.0090    0.3930 H   0  0  0  0  0  0  0  0  0  0  0  0
    4.6781   -0.1567    0.9145 H   0  0  0  0  0  0  0  0  0  0  0  0
    3.7269   -0.3728   -1.9018 H   0  0  0  0  0  0  0  0  0  0  0  0
    4.3901   -1.6303   -0.8086 H   0  0  0  0  0  0  0  0  0  0  0  0
    1.5816   -0.6055   -1.1090 H   0  0  0  0  0  0  0  0  0  0  0  0
    2.1820   -2.2569   -0.7451 H   0  0  0  0  0  0  0  0  0  0  0  0
    2.7723   -1.5236    1.5755 H   0  0  0  0  0  0  0  0  0  0  0  0
   -0.4587   -0.2033    0.0483 H   0  0  0  0  0  0  0  0  0  0  0  0
   -1.9328   -2.5374    0.8896 H   0  0  0  0  0  0  0  0  0  0  0  0
   -2.0077   -1.3315    2.2331 H   0  0  0  0  0  0  0  0  0  0  0  0
   -2.8073   -0.7964   -0.6994 H   0  0  0  0  0  0  0  0  0  0  0  0
   -2.9048    0.3860    0.6616 H   0  0  0  0  0  0  0  0  0  0  0  0
   -4.4478   -2.2922    0.4594 H   0  0  0  0  0  0  0  0  0  0  0  0
   -4.4756   -1.1898    1.8732 H   0  0  0  0  0  0  0  0  0  0  0  0
   -4.9830   -1.1267   -1.8976 H   0  0  0  0  0  0  0  0  0  0  0  0
   -6.7676    0.1741   -2.9865 H   0  0  0  0  0  0  0  0  0  0  0  0
   -8.6489    1.7607   -2.7561 H   0  0  0  0  0  0  0  0  0  0  0  0
   -7.9698    1.7434    0.8348 H   0  0  0  0  0  0  0  0  0  0  0  0
   -6.1840    0.4549    1.9353 H   0  0  0  0  0  0  0  0  0  0  0  0
    2.4270    0.6181    2.4233 H   0  0  0  0  0  0  0  0  0  0  0  0
    1.1931    1.0783    1.2163 H   0  0  0  0  0  0  0  0  0  0  0  0
    2.7421    1.7108   -0.4007 H   0  0  0  0  0  0  0  0  0  0  0  0
    3.6199    2.0738    1.1176 H   0  0  0  0  0  0  0  0  0  0  0  0
  1  2  1  0
  2  3  1  0
  2  4  1  0
  4  5  1  0
  5  6  1  0
  6  7  1  0
  7  8  1  0
  8  9  2  0
  8 10  1  0
 10 11  1  0
 11 12  1  0
 12 13  1  0
 13 14  1  0
 14 15  2  0
 15 16  1  0
 16 17  2  0
 17 18  1  0
 17 19  1  0
 19 20  2  0
  7 21  1  0
 21 22  1  0
 22  4  1  0
 20 14  1  0
  1 23  1  0
  1 24  1  0
  1 25  1  0
  2 26  1  0
  3 27  1  0
  3 28  1  0
  3 29  1  0
  4 30  1  0
  5 31  1  0
  5 32  1  0
  6 33  1  0
  6 34  1  0
  7 35  1  0
 10 36  1  0
 11 37  1  0
 11 38  1  0
 12 39  1  0
 12 40  1  0
 13 41  1  0
 13 42  1  0
 15 43  1  0
 16 44  1  0
 18 45  1  0
 19 46  1  0
 20 47  1  0
 21 48  1  0
 21 49  1  0
 22 50  1  0
 22 51  1  0
M  CHG  1   4   1
M  END
$$$$
mol_28
     RDKit          3D

 48 48  0  0  0  0  0  0  0  0999 V2000
    7.0149    1.0373   -0.2294 C   0  0  0  0  0  0  0  0  0  0  0  0
    5.5787    1.3534   -0.6468 C   0  0  0  0  0  0  0  0  0  0  0  0
    4.5429    0.5668    0.1654 C   0  0  0  0  0  0  0  0  0  0  0  0
    4.6259   -0.9160   -0.1133 C   0  0  0  0  0  0  0  0  0  0  0  0
    3.8031   -1.5873   -0.9401 C   0  0  0  0  0  0  0  0  0  0  0  0
    2.6802   -0.9531   -1.7179 C   0  0  0  0  0  0  0  0  0  0  0  0
    1.6400   -0.5114   -0.8488 O   0  0  0  0  0  0  0  0  0  0  0  0
    0.8308   -1.3815   -0.1102 C   0  0  0  0  0  0  0  0  0  0  0  0
    0.9906   -2.6309   -0.1826 O   0  0  0  0  0  0  0  0  0  0  0  0
   -0.2788   -0.8193    0.7230 C   0  0  0  0  0  0  0  0  0  0  0  0
   -1.5550   -0.6414   -0.1178 C   0  0  2  0  0  0  0  0  0  0  0  0
   -1.3225    0.3239   -1.1989 N   0  0  0  0  0  0  0  0  0  0  0  0
   -1.4829    0.0027   -2.5883 C   0  0  0  0  0  0  0  0  0  0  0  0
   -1.0925    0.9993   -3.6295 C   0  0  0  0  0  0  0  0  0  0  0  0
   -1.9627   -1.1084   -2.9405 O   0  0  0  0  0  0  0  0  0  0  0  0
   -2.7145   -0.1794    0.7410 C   0  0  0  0  0  0  0  0  0  0  0  0
   -2.6798    1.0659    1.3941 C   0  0  0  0  0  0  0  0  0  0  0  0
   -3.7618    1.4895    2.1702 C   0  0  0  0  0  0  0  0  0  0  0  0
   -4.8966    0.6838    2.3096 C   0  0  0  0  0  0  0  0  0  0  0  0
   -5.9591    1.1583    3.0930 O   0  0  0  0  0  0  0  0  0  0  0  0
   -7.1852    0.4615    3.2909 C   0  0  0  0  0  0  0  0  0  0  0  0
   -4.9347   -0.5647    1.6621 C   0  0  0  0  0  0  0  0  0  0  0  0
   -3.8532   -0.9901    0.8851 C   0  0  0  0  0  0  0  0  0  0  0  0
    7.2706   -0.0142   -0.4797 H   0  0  0  0  0  0  0  0  0  0  0  0
    7.7140    1.7053   -0.7758 H   0  0  0  0  0  0  0  0  0  0  0  0
    7.1475    1.2002    0.8624 H   0  0  0  0  0  0  0  0  0  0  0  0
    5.3981    2.4398   -0.4916 H   0  0  0  0  0  0  0  0  0  0  0  0
    5.4513    1.1387   -1.7313 H   0  0  0  0  0  0  0  0  0  0  0  0
    3.5355    0.9685   -0.0655 H   0  0  0  0  0  0  0  0  0  0  0  0
    4.7057    0.7370    1.2520 H   0  0  0  0  0  0  0  0  0  0  0  0
    5.4200   -1.4733    0.3759 H   0  0  0  0  0  0  0  0  0  0  0  0
    3.9745   -2.6508   -1.0806 H   0  0  0  0  0  0  0  0  0  0  0  0
    3.0687   -0.0872   -2.2929 H   0  0  0  0  0  0  0  0  0  0  0  0
    2.2689   -1.6829   -2.4472 H   0  0  0  0  0  0  0  0  0  0  0  0
   -0.4836   -1.5078    1.5724 H   0  0  0  0  0  0  0  0  0  0  0  0
    0.0494    0.1543    1.1465 H   0  0  0  0  0  0  0  0  0  0  0  0
   -1.8017   -1.6381   -0.5482 H   0  0  0  0  0  0  0  0  0  0  0  0
   -0.9915    1.2857   -0.9528 H   0  0  0  0  0  0  0  0  0  0  0  0
   -1.2280    0.5761   -4.6485 H   0  0  0  0  0  0  0  0  0  0  0  0
   -0.0269    1.2778   -3.4938 H   0  0  0  0  0  0  0  0  0  0  0  0
   -1.7226    1.9078   -3.5288 H   0  0  0  0  0  0  0  0  0  0  0  0
   -1.8177    1.7134    1.3018 H   0  0  0  0  0  0  0  0  0  0  0  0
   -3.7198    2.4519    2.6640 H   0  0  0  0  0  0  0  0  0  0  0  0
   -7.8479    1.0699    3.9399 H   0  0  0  0  0  0  0  0  0  0  0  0
   -7.6932    0.2992    2.3170 H   0  0  0  0  0  0  0  0  0  0  0  0
   -6.9949   -0.5116    3.7903 H   0  0  0  0  0  0  0  0  0  0  0  0
   -5.7955   -1.2132    1.7506 H   0  0  0  0  0  0  0  0  0  0  0  0
   -3.9085   -1.9534    0.3935 H   0  0  0  0  0  0  0  0  0  0  0  0
  1  2  1  0
  2  3  1  0
  3  4  1  0
  4  5  2  0
  5  6  1  0
  6  7  1  0
  7  8  1  0
  8  9  2  0
  8 10  1  0
 10 11  1  0
 11 12  1  0
 12 13  1  0
 13 14  1  0
 13 15  2  0
 11 16  1  0
 16 17  2  0
 17 18  1  0
 18 19  2  0
 19 20  1  0
 20 21  1  0
 19 22  1  0
 22 23  2  0
 23 16  1  0
  1 24  1  0
  1 25  1  0
  1 26  1  0
  2 27  1  0
  2 28  1  0
  3 29  1  0
  3 30  1  0
  4 31  1  0
  5 32  1  0
  6 33  1  0
  6 34  1  0
 10 35  1  0
 10 36  1  0
 11 37  1  6
 12 38  1  0
 14 39  1  0
 14 40  1  0
 14 41  1  0
 17 42  1  0
 18 43  1  0
 21 44  1  0
 21 45  1  0
 21 46  1  0
 22 47  1  0
 23 48  1  0
M  END
$$$$
mol_29
     RDKit          3D

 55 57  0  0  0  0  0  0  0  0999 V2000
    4.5106   -1.9934   -1.4189 C   0  0  0  0  0  0  0  0  0  0  0  0
    3.1239   -1.4055   -1.1072 C   0  0  2  0  0  0  0  0  0  0  0  0
    2.9459    0.0241   -1.7026 C   0  0  0  0  0  0  0  0  0  0  0  0
    2.3561    0.9156   -0.6739 N   0  0  2  0  0  0  0  0  0  0  0  0
    3.3451    1.0428    0.4293 C   0  0  0  0  0  0  0  0  0  0  0  0
    3.6446   -0.3462    1.0381 C   0  0  0  0  0  0  0  0  0  0  0  0
    2.8293   -1.3774    0.3553 N   0  0  1  0  0  0  0  0  0  0  0  0
    1.4015   -1.0273    0.5504 C   0  0  0  0  0  0  0  0  0  0  0  0
    1.0781    0.2992   -0.2017 C   0  0  1  0  0  0  0  0  0  0  0  0
    0.1987    1.2540    0.6012 C   0  0  0  0  0  0  0  0  0  0  0  0
    0.6890    2.3403    1.0127 O   0  0  0  0  0  0  0  0  0  0  0  0
   -1.2137    0.9982    0.8183 N   0  0  0  0  0  0  0  0  0  0  0  0
   -1.8038   -0.3439    0.6744 C   0  0  0  0  0  0  0  0  0  0  0  0
   -1.5734   -1.1803    1.9082 C   0  0  0  0  0  0  0  0  0  0  0  0
   -1.1594   -0.6211    2.9617 O   0  0  0  0  0  0  0  0  0  0  0  0
   -1.8412   -2.5990    1.9133 N   0  0  0  0  0  0  0  0  0  0  0  0
   -2.3876   -3.2642    0.7255 C   0  0  0  0  0  0  0  0  0  0  0  0
   -1.5568   -3.3739    3.1252 C   0  0  0  0  0  0  0  0  0  0  0  0
   -2.1234    2.1193    1.1013 C   0  0  0  0  0  0  0  0  0  0  0  0
   -2.7420    2.6215   -0.1765 C   0  0  0  0  0  0  0  0  0  0  0  0
   -4.1007    2.3898   -0.4500 C   0  0  0  0  0  0  0  0  0  0  0  0
   -4.6667    2.8447   -1.6450 C   0  0  0  0  0  0  0  0  0  0  0  0
   -3.8823    3.5337   -2.5753 C   0  0  0  0  0  0  0  0  0  0  0  0
   -4.6572    4.1524   -4.2074 Br  0  0  0  0  0  0  0  0  0  0  0  0
   -2.5298    3.7686   -2.3093 C   0  0  0  0  0  0  0  0  0  0  0  0
   -1.9607    3.3153   -1.1155 C   0  0  0  0  0  0  0  0  0  0  0  0
    4.6307   -2.9780   -0.9197 H   0  0  0  0  0  0  0  0  0  0  0  0
    5.3265   -1.3175   -1.0903 H   0  0  0  0  0  0  0  0  0  0  0  0
    4.6123   -2.1447   -2.5146 H   0  0  0  0  0  0  0  0  0  0  0  0
    2.3888   -2.0803   -1.6053 H   0  0  0  0  0  0  0  0  0  0  0  0
    3.9157    0.4423   -2.0578 H   0  0  0  0  0  0  0  0  0  0  0  0
    2.2862   -0.0194   -2.5987 H   0  0  0  0  0  0  0  0  0  0  0  0
    2.1761    1.8548   -1.1017 H   0  0  0  0  0  0  0  0  0  0  0  0
    2.9834    1.7267    1.2230 H   0  0  0  0  0  0  0  0  0  0  0  0
    4.2884    1.4941    0.0467 H   0  0  0  0  0  0  0  0  0  0  0  0
    4.7273   -0.5797    0.9584 H   0  0  0  0  0  0  0  0  0  0  0  0
    3.4161   -0.3362    2.1281 H   0  0  0  0  0  0  0  0  0  0  0  0
    3.0137   -2.3148    0.7848 H   0  0  0  0  0  0  0  0  0  0  0  0
    0.7582   -1.8511    0.1685 H   0  0  0  0  0  0  0  0  0  0  0  0
    1.1852   -0.9306    1.6378 H   0  0  0  0  0  0  0  0  0  0  0  0
    0.4764    0.0446   -1.1039 H   0  0  0  0  0  0  0  0  0  0  0  0
   -1.3987   -0.8450   -0.2249 H   0  0  0  0  0  0  0  0  0  0  0  0
   -2.9011   -0.2700    0.5142 H   0  0  0  0  0  0  0  0  0  0  0  0
   -1.6564   -3.2072   -0.1077 H   0  0  0  0  0  0  0  0  0  0  0  0
   -2.6042   -4.3358    0.9176 H   0  0  0  0  0  0  0  0  0  0  0  0
   -3.3370   -2.7751    0.4219 H   0  0  0  0  0  0  0  0  0  0  0  0
   -0.4808   -3.2804    3.3842 H   0  0  0  0  0  0  0  0  0  0  0  0
   -2.1705   -2.9903    3.9675 H   0  0  0  0  0  0  0  0  0  0  0  0
   -1.7863   -4.4516    2.9902 H   0  0  0  0  0  0  0  0  0  0  0  0
   -1.5968    2.9523    1.6138 H   0  0  0  0  0  0  0  0  0  0  0  0
   -2.9109    1.7841    1.8123 H   0  0  0  0  0  0  0  0  0  0  0  0
   -4.7206    1.8528    0.2570 H   0  0  0  0  0  0  0  0  0  0  0  0
   -5.7138    2.6596   -1.8476 H   0  0  0  0  0  0  0  0  0  0  0  0
   -1.9191    4.3018   -3.0265 H   0  0  0  0  0  0  0  0  0  0  0  0
   -0.9128    3.5069   -0.9240 H   0  0  0  0  0  0  0  0  0  0  0  0
  1  2  1  0
  2  3  1  0
  3  4  1  0
  4  5  1  0
  5  6  1  0
  6  7  1  0
  7  8  1  0
  8  9  1  0
  9 10  1  0
 10 11  2  0
 10 12  1  0
 12 13  1  0
 13 14  1  0
 14 15  2  0
 14 16  1  0
 16 17  1  0
 16 18  1  0
 12 19  1  0
 19 20  1  0
 20 21  2  0
 21 22  1  0
 22 23  2  0
 23 24  1  0
 23 25  1  0
 25 26  2  0
  7  2  1  0
 26 20  1  0
  9  4  1  0
  1 27  1  0
  1 28  1  0
  1 29  1  0
  2 30  1  6
  3 31  1  0
  3 32  1  0
  4 33  1  6
  5 34  1  0
  5 35  1  0
  6 36  1  0
  6 37  1  0
  7 38  1  1
  8 39  1  0
  8 40  1  0
  9 41  1  6
 13 42  1  0
 13 43  1  0
 17 44  1  0
 17 45  1  0
 17 46  1  0
 18 47  1  0
 18 48  1  0
 18 49  1  0
 19 50  1  0
 19 51  1  0
 21 52  1  0
 22 53  1  0
 25 54  1  0
 26 55  1  0
M  CHG  2   4   1   7   1
M  END
$$$$
mol_30
     RDKit          3D

 35 35  0  0  0  0  0  0  0  0999 V2000
   -4.1685   -2.2221    0.5416 C   0  0  0  0  0  0  0  0  0  0  0  0
   -2.9405   -1.4548    0.9086 C   0  0  0  0  0  0  0  0  0  0  0  0
   -2.7747   -1.0791    2.1007 O   0  0  0  0  0  0  0  0  0  0  0  0
   -1.9637   -1.1490   -0.0977 N   0  0  0  0  0  0  0  0  0  0  0  0
   -0.7538   -0.3576    0.1676 C   0  0  1  0  0  0  0  0  0  0  0  0
    0.4441   -1.0763   -0.5107 C   0  0  0  0  0  0  0  0  0  0  0  0
    1.7992   -0.5487   -0.1095 C   0  0  0  0  0  0  0  0  0  0  0  0
    2.6665   -0.0117   -1.0775 C   0  0  0  0  0  0  0  0  0  0  0  0
    3.9271    0.4667   -0.7076 C   0  0  0  0  0  0  0  0  0  0  0  0
    4.3384    0.4004    0.6263 C   0  0  0  0  0  0  0  0  0  0  0  0
    5.5614    0.8646    0.9826 F   0  0  0  0  0  0  0  0  0  0  0  0
    3.4919   -0.1516    1.5915 C   0  0  0  0  0  0  0  0  0  0  0  0
    2.2305   -0.6314    1.2263 C   0  0  0  0  0  0  0  0  0  0  0  0
   -1.0022    1.1374   -0.2461 C   0  0  0  0  0  0  0  0  0  0  0  0
    0.0657    2.0750    0.3623 C   0  0  0  0  0  0  0  0  0  0  0  0
   -1.0270    1.3139   -1.7819 C   0  0  0  0  0  0  0  0  0  0  0  0
   -2.2585    1.5114    0.2773 O   0  0  0  0  0  0  0  0  0  0  0  0
   -4.8171   -2.3730    1.4307 H   0  0  0  0  0  0  0  0  0  0  0  0
   -4.7386   -1.6627   -0.2291 H   0  0  0  0  0  0  0  0  0  0  0  0
   -3.8788   -3.2132    0.1347 H   0  0  0  0  0  0  0  0  0  0  0  0
   -2.1669   -1.4376   -1.0818 H   0  0  0  0  0  0  0  0  0  0  0  0
   -0.5635   -0.3750    1.2626 H   0  0  0  0  0  0  0  0  0  0  0  0
    0.4150   -2.1499   -0.2211 H   0  0  0  0  0  0  0  0  0  0  0  0
    0.3219   -1.0652   -1.6143 H   0  0  0  0  0  0  0  0  0  0  0  0
    2.3645    0.0467   -2.1157 H   0  0  0  0  0  0  0  0  0  0  0  0
    4.5850    0.8880   -1.4568 H   0  0  0  0  0  0  0  0  0  0  0  0
    3.8140   -0.2123    2.6231 H   0  0  0  0  0  0  0  0  0  0  0  0
    1.5935   -1.0693    1.9842 H   0  0  0  0  0  0  0  0  0  0  0  0
   -0.2363    3.1371    0.2391 H   0  0  0  0  0  0  0  0  0  0  0  0
    1.0456    1.9658   -0.1392 H   0  0  0  0  0  0  0  0  0  0  0  0
    0.1880    1.8801    1.4490 H   0  0  0  0  0  0  0  0  0  0  0  0
   -0.0298    1.1184   -2.2275 H   0  0  0  0  0  0  0  0  0  0  0  0
   -1.3055    2.3562   -2.0476 H   0  0  0  0  0  0  0  0  0  0  0  0
   -1.7718    0.6336   -2.2447 H   0  0  0  0  0  0  0  0  0  0  0  0
   -2.4552    2.4452    0.0009 H   0  0  0  0  0  0  0  0  0  0  0  0
  1  2  1  0
  2  3  2  0
  2  4  1  0
  4  5  1  0
  5  6  1  0
  6  7  1  0
  7  8  2  0
  8  9  1  0
  9 10  2  0
 10 11  1  0
 10 12  1  0
 12 13  2  0
  5 14  1  0
 14 15  1  0
 14 16  1  0
 14 17  1  0
 13  7  1  0
  1 18  1  0
  1 19  1  0
  1 20  1  0
  4 21  1  0
  5 22  1  1
  6 23  1  0
  6 24  1  0
  8 25  1  0
  9 26  1  0
 12 27  1  0
 13 28  1  0
 15 29  1  0
 15 30  1  0
 15 31  1  0
 16 32  1  0
 16 33  1  0
 16 34  1  0
 17 35  1  0
M  END
$$$$
mol_31
     RDKit          3D

 56 57  0  0  0  0  0  0  0  0999 V2000
    3.3786    3.7605    3.0657 C   0  0  0  0  0  0  0  0  0  0  0  0
    2.8937    3.0626    1.8372 C   0  0  0  0  0  0  0  0  0  0  0  0
    2.2217    3.6994    0.9813 O   0  0  0  0  0  0  0  0  0  0  0  0
    3.1915    1.6756    1.6384 N   0  0  0  0  0  0  0  0  0  0  0  0
    2.7355    0.9627    0.4455 C   0  0  0  0  0  0  0  0  0  0  0  0
    3.1974   -0.4985    0.4697 C   0  0  0  0  0  0  0  0  0  0  0  0
    2.7410   -1.2096   -0.7362 N   0  0  0  0  0  0  0  0  0  0  0  0
    3.7278   -1.6670   -1.7262 C   0  0  0  0  0  0  0  0  0  0  0  0
    3.7932   -3.1661   -1.7351 C   0  0  0  0  0  0  0  0  0  0  0  0
    4.1922   -3.9118   -0.6309 C   0  0  0  0  0  0  0  0  0  0  0  0
    4.1162   -5.5370   -1.0497 S   0  0  0  0  0  0  0  0  0  0  0  0
    3.5816   -5.3128   -2.6274 C   0  0  0  0  0  0  0  0  0  0  0  0
    3.4538   -3.9489   -2.8494 C   0  0  0  0  0  0  0  0  0  0  0  0
    1.3334   -1.4194   -0.9952 C   0  0  0  0  0  0  0  0  0  0  0  0
    0.9437   -1.6394   -2.1743 O   0  0  0  0  0  0  0  0  0  0  0  0
    0.3688   -1.3868    0.0692 N   0  0  0  0  0  0  0  0  0  0  0  0
   -1.0721   -1.3228   -0.1973 C   0  0  1  0  0  0  0  0  0  0  0  0
   -1.8989   -1.4416    1.0774 C   0  0  0  0  0  0  0  0  0  0  0  0
   -3.1936   -0.6810    0.8057 C   0  0  0  0  0  0  0  0  0  0  0  0
   -2.9581    0.1801   -0.4498 C   0  0  1  0  0  0  0  0  0  0  0  0
   -3.3443    1.6700   -0.2691 C   0  0  0  0  0  0  0  0  0  0  0  0
   -4.8457    1.9655   -0.5061 C   0  0  0  0  0  0  0  0  0  0  0  0
   -5.7442    1.3491    0.5750 C   0  0  0  0  0  0  0  0  0  0  0  0
   -5.0760    3.4822   -0.5651 C   0  0  0  0  0  0  0  0  0  0  0  0
   -1.4714    0.0231   -0.7810 C   0  0  0  0  0  0  0  0  0  0  0  0
    3.0746    4.8293    3.0540 H   0  0  0  0  0  0  0  0  0  0  0  0
    2.9459    3.2730    3.9650 H   0  0  0  0  0  0  0  0  0  0  0  0
    4.4865    3.7009    3.1140 H   0  0  0  0  0  0  0  0  0  0  0  0
    3.7382    1.1711    2.3743 H   0  0  0  0  0  0  0  0  0  0  0  0
    3.1503    1.4583   -0.4597 H   0  0  0  0  0  0  0  0  0  0  0  0
    1.6268    1.0101    0.3989 H   0  0  0  0  0  0  0  0  0  0  0  0
    2.8283   -1.0116    1.3811 H   0  0  0  0  0  0  0  0  0  0  0  0
    4.3068   -0.5135    0.5395 H   0  0  0  0  0  0  0  0  0  0  0  0
    3.4551   -1.2790   -2.7319 H   0  0  0  0  0  0  0  0  0  0  0  0
    4.7416   -1.2712   -1.5025 H   0  0  0  0  0  0  0  0  0  0  0  0
    4.4993   -3.5149    0.3287 H   0  0  0  0  0  0  0  0  0  0  0  0
    3.3754   -6.0930   -3.3468 H   0  0  0  0  0  0  0  0  0  0  0  0
    3.1271   -3.5345   -3.7930 H   0  0  0  0  0  0  0  0  0  0  0  0
    0.6980   -1.4700    1.0555 H   0  0  0  0  0  0  0  0  0  0  0  0
   -1.3652   -2.1393   -0.8961 H   0  0  0  0  0  0  0  0  0  0  0  0
   -2.0972   -2.5064    1.3279 H   0  0  0  0  0  0  0  0  0  0  0  0
   -1.3734   -0.9608    1.9326 H   0  0  0  0  0  0  0  0  0  0  0  0
   -3.4614   -0.0718    1.6969 H   0  0  0  0  0  0  0  0  0  0  0  0
   -4.0154   -1.4061    0.6167 H   0  0  0  0  0  0  0  0  0  0  0  0
   -3.5382   -0.2530   -1.2965 H   0  0  0  0  0  0  0  0  0  0  0  0
   -2.7688    2.2623   -1.0159 H   0  0  0  0  0  0  0  0  0  0  0  0
   -3.0294    2.0354    0.7337 H   0  0  0  0  0  0  0  0  0  0  0  0
   -5.1447    1.5438   -1.4915 H   0  0  0  0  0  0  0  0  0  0  0  0
   -6.7939    1.6872    0.4431 H   0  0  0  0  0  0  0  0  0  0  0  0
   -5.4011    1.6432    1.5893 H   0  0  0  0  0  0  0  0  0  0  0  0
   -5.7498    0.2446    0.4904 H   0  0  0  0  0  0  0  0  0  0  0  0
   -6.1461    3.7036   -0.7677 H   0  0  0  0  0  0  0  0  0  0  0  0
   -4.7861    3.9592    0.3964 H   0  0  0  0  0  0  0  0  0  0  0  0
   -4.4760    3.9322   -1.3855 H   0  0  0  0  0  0  0  0  0  0  0  0
   -0.8756    0.8288   -0.2949 H   0  0  0  0  0  0  0  0  0  0  0  0
   -1.2978    0.0539   -1.8786 H   0  0  0  0  0  0  0  0  0  0  0  0
  1  2  1  0
  2  3  2  0
  2  4  1  0
  4  5  1  0
  5  6  1  0
  6  7  1  0
  7  8  1  0
  8  9  1  0
  9 10  2  0
 10 11  1  0
 11 12  1  0
 12 13  2  0
  7 14  1  0
 14 15  2  0
 14 16  1  0
 16 17  1  0
 17 18  1  0
 18 19  1  0
 19 20  1  0
 20 21  1  0
 21 22  1  0
 22 23  1  0
 22 24  1  0
 20 25  1  0
 13  9  1  0
 25 17  1  0
  1 26  1  0
  1 27  1  0
  1 28  1  0
  4 29  1  0
  5 30  1  0
  5 31  1  0
  6 32  1  0
  6 33  1  0
  8 34  1  0
  8 35  1  0
 10 36  1  0
 12 37  1  0
 13 38  1  0
 16 39  1  0
 17 40  1  6
 18 41  1  0
 18 42  1  0
 19 43  1  0
 19 44  1  0
 20 45  1  6
 21 46  1  0
 21 47  1  0
 22 48  1  0
 23 49  1  0
 23 50  1  0
 23 51  1  0
 24 52  1  0
 24 53  1  0
 24 54  1  0
 25 55  1  0
 25 56  1  0
M  END
$$$$
mol_32
     RDKit          3D

 53 54  0  0  0  0  0  0  0  0999 V2000
   -6.6774   -0.6877   -1.0793 C   0  0  0  0  0  0  0  0  0  0  0  0
   -6.3172    0.7387   -1.5173 C   0  0  0  0  0  0  0  0  0  0  0  0
   -7.0446    1.7768   -0.6520 C   0  0  0  0  0  0  0  0  0  0  0  0
   -4.7888    0.9750   -1.5679 C   0  0  0  0  0  0  0  0  0  0  0  0
   -4.0753    0.8609   -0.2157 C   0  0  0  0  0  0  0  0  0  0  0  0
   -2.6960    1.1000   -0.4080 O   0  0  0  0  0  0  0  0  0  0  0  0
   -1.9792    0.8713    0.7943 C   0  0  2  0  0  0  0  0  0  0  0  0
   -0.7392    1.7678    0.8087 C   0  0  0  0  0  0  0  0  0  0  0  0
    0.4000    0.9178    0.2644 C   0  0  0  0  0  0  0  0  0  0  0  0
   -0.0452   -0.4591    0.3969 N   0  0  0  0  0  0  0  0  0  0  0  0
    0.8093   -1.6095    0.2588 C   0  0  0  0  0  0  0  0  0  0  0  0
    0.3675   -2.7462    0.5767 O   0  0  0  0  0  0  0  0  0  0  0  0
    2.1869   -1.4880   -0.2712 C   0  0  0  0  0  0  0  0  0  0  0  0
    2.3988   -0.6665   -1.2042 O   0  0  0  0  0  0  0  0  0  0  0  0
    3.2846   -2.2780    0.2448 N   0  0  0  0  0  0  0  0  0  0  0  0
    3.1131   -3.1318    1.4261 C   0  0  0  0  0  0  0  0  0  0  0  0
    4.6108   -2.1759   -0.3839 C   0  0  0  0  0  0  0  0  0  0  0  0
    5.2484   -0.8489   -0.0612 C   0  0  0  0  0  0  0  0  0  0  0  0
    5.5333    0.0749   -1.0811 C   0  0  0  0  0  0  0  0  0  0  0  0
    6.1195    1.3114   -0.7730 C   0  0  0  0  0  0  0  0  0  0  0  0
    6.4036    2.2325   -1.7784 O   0  0  0  0  0  0  0  0  0  0  0  0
    6.4235    1.6249    0.5556 C   0  0  0  0  0  0  0  0  0  0  0  0
    6.1469    0.7087    1.5736 C   0  0  0  0  0  0  0  0  0  0  0  0
    5.5640   -0.5244    1.2683 C   0  0  0  0  0  0  0  0  0  0  0  0
   -1.4323   -0.5583    0.8177 C   0  0  0  0  0  0  0  0  0  0  0  0
   -6.1181   -1.4307   -1.6865 H   0  0  0  0  0  0  0  0  0  0  0  0
   -7.7635   -0.8651   -1.2312 H   0  0  0  0  0  0  0  0  0  0  0  0
   -6.4472   -0.8486   -0.0053 H   0  0  0  0  0  0  0  0  0  0  0  0
   -6.6915    0.8632   -2.5579 H   0  0  0  0  0  0  0  0  0  0  0  0
   -6.7424    2.8044   -0.9458 H   0  0  0  0  0  0  0  0  0  0  0  0
   -6.8230    1.6273    0.4258 H   0  0  0  0  0  0  0  0  0  0  0  0
   -8.1421    1.6846   -0.7960 H   0  0  0  0  0  0  0  0  0  0  0  0
   -4.5965    1.9868   -1.9872 H   0  0  0  0  0  0  0  0  0  0  0  0
   -4.3354    0.2432   -2.2723 H   0  0  0  0  0  0  0  0  0  0  0  0
   -4.2393   -0.1580    0.2002 H   0  0  0  0  0  0  0  0  0  0  0  0
   -4.4903    1.6212    0.4816 H   0  0  0  0  0  0  0  0  0  0  0  0
   -2.5834    1.0801    1.7113 H   0  0  0  0  0  0  0  0  0  0  0  0
   -0.5089    2.0619    1.8568 H   0  0  0  0  0  0  0  0  0  0  0  0
   -0.8827    2.6898    0.2037 H   0  0  0  0  0  0  0  0  0  0  0  0
    0.5756    1.1535   -0.8072 H   0  0  0  0  0  0  0  0  0  0  0  0
    1.3279    1.0881    0.8531 H   0  0  0  0  0  0  0  0  0  0  0  0
    4.0888   -3.5007    1.8078 H   0  0  0  0  0  0  0  0  0  0  0  0
    2.4921   -4.0139    1.1677 H   0  0  0  0  0  0  0  0  0  0  0  0
    2.6307   -2.5554    2.2435 H   0  0  0  0  0  0  0  0  0  0  0  0
    5.2839   -2.9882   -0.0340 H   0  0  0  0  0  0  0  0  0  0  0  0
    4.5062   -2.3162   -1.4825 H   0  0  0  0  0  0  0  0  0  0  0  0
    5.2982   -0.1615   -2.1117 H   0  0  0  0  0  0  0  0  0  0  0  0
    6.2031    2.0332   -2.7519 H   0  0  0  0  0  0  0  0  0  0  0  0
    6.8756    2.5783    0.7983 H   0  0  0  0  0  0  0  0  0  0  0  0
    6.3847    0.9546    2.6004 H   0  0  0  0  0  0  0  0  0  0  0  0
    5.3567   -1.2245    2.0679 H   0  0  0  0  0  0  0  0  0  0  0  0
   -1.9958   -1.2233    0.1275 H   0  0  0  0  0  0  0  0  0  0  0  0
   -1.4782   -0.9709    1.8493 H   0  0  0  0  0  0  0  0  0  0  0  0
  1  2  1  0
  2  3  1  0
  2  4  1  0
  4  5  1  0
  5  6  1  0
  6  7  1  0
  7  8  1  0
  8  9  1  0
  9 10  1  0
 10 11  1  0
 11 12  2  0
 11 13  1  0
 13 14  2  0
 13 15  1  0
 15 16  1  0
 15 17  1  0
 17 18  1  0
 18 19  2  0
 19 20  1  0
 20 21  1  0
 20 22  2  0
 22 23  1  0
 23 24  2  0
 10 25  1  0
 25  7  1  0
 24 18  1  0
  1 26  1  0
  1 27  1  0
  1 28  1  0
  2 29  1  0
  3 30  1  0
  3 31  1  0
  3 32  1  0
  4 33  1  0
  4 34  1  0
  5 35  1  0
  5 36  1  0
  7 37  1  1
  8 38  1  0
  8 39  1  0
  9 40  1  0
  9 41  1  0
 16 42  1  0
 16 43  1  0
 16 44  1  0
 17 45  1  0
 17 46  1  0
 19 47  1  0
 21 48  1  0
 22 49  1  0
 23 50  1  0
 24 51  1  0
 25 52  1  0
 25 53  1  0
M  END
$$$$
mol_33
     RDKit          3D

 65 66  0  0  0  0  0  0  0  0999 V2000
    7.0793   -1.1824    0.7043 C   0  0  0  0  0  0  0  0  0  0  0  0
    6.7945   -0.5438   -0.6636 C   0  0  0  0  0  0  0  0  0  0  0  0
    7.7837   -1.0833   -1.7050 C   0  0  0  0  0  0  0  0  0  0  0  0
    5.3428   -0.8006   -1.1338 C   0  0  0  0  0  0  0  0  0  0  0  0
    4.2712   -0.1313   -0.2448 C   0  0  2  0  0  0  0  0  0  0  0  0
    2.8381   -0.4151   -0.7739 C   0  0  0  0  0  0  0  0  0  0  0  0
    1.8954    0.7158   -0.3541 C   0  0  2  0  0  0  0  0  0  0  0  0
    0.5453    0.4586   -0.8626 N   0  0  0  0  0  0  0  0  0  0  0  0
   -0.6113    0.3782   -0.0165 C   0  0  0  0  0  0  0  0  0  0  0  0
   -0.4923    0.4849    1.2353 O   0  0  0  0  0  0  0  0  0  0  0  0
   -1.9788    0.2250   -0.6355 C   0  0  2  0  0  0  0  0  0  0  0  0
   -2.4607    1.5397   -1.2808 C   0  0  0  0  0  0  0  0  0  0  0  0
   -2.5679    2.6824   -0.2988 C   0  0  0  0  0  0  0  0  0  0  0  0
   -1.4567    3.4955   -0.0312 C   0  0  0  0  0  0  0  0  0  0  0  0
   -1.5755    4.5494    0.8800 C   0  0  0  0  0  0  0  0  0  0  0  0
   -0.5785    5.2782    1.1296 O   0  0  0  0  0  0  0  0  0  0  0  0
   -2.7666    4.7884    1.4965 N   0  0  0  0  0  0  0  0  0  0  0  0
   -3.8618    4.0207    1.2447 C   0  0  0  0  0  0  0  0  0  0  0  0
   -3.7840    2.9583    0.3418 C   0  0  0  0  0  0  0  0  0  0  0  0
   -2.9523   -0.2476    0.3577 N   0  0  0  0  0  0  0  0  0  0  0  0
   -3.6973   -1.4632    0.2176 C   0  0  0  0  0  0  0  0  0  0  0  0
   -3.5388   -2.1928   -0.7983 O   0  0  0  0  0  0  0  0  0  0  0  0
   -4.6029   -1.8199    1.2279 O   0  0  0  0  0  0  0  0  0  0  0  0
   -5.4304   -2.9927    1.2534 C   0  0  0  0  0  0  0  0  0  0  0  0
   -4.5649   -4.2676    1.2566 C   0  0  0  0  0  0  0  0  0  0  0  0
   -6.2465   -2.9443    2.5542 C   0  0  0  0  0  0  0  0  0  0  0  0
   -6.4015   -2.9980    0.0573 C   0  0  0  0  0  0  0  0  0  0  0  0
    2.4146    2.0667   -0.8836 C   0  0  0  0  0  0  0  0  0  0  0  0
    3.9453    2.0646   -1.0364 C   0  0  0  0  0  0  0  0  0  0  0  0
    4.5528    1.2539   -0.0487 O   0  0  0  0  0  0  0  0  0  0  0  0
    6.8320   -2.2656    0.6918 H   0  0  0  0  0  0  0  0  0  0  0  0
    6.4901   -0.6825    1.5002 H   0  0  0  0  0  0  0  0  0  0  0  0
    8.1522   -1.0648    0.9681 H   0  0  0  0  0  0  0  0  0  0  0  0
    6.9643    0.5523   -0.5816 H   0  0  0  0  0  0  0  0  0  0  0  0
    7.6639   -2.1815   -1.8274 H   0  0  0  0  0  0  0  0  0  0  0  0
    8.8280   -0.8688   -1.3922 H   0  0  0  0  0  0  0  0  0  0  0  0
    7.6146   -0.5919   -2.6870 H   0  0  0  0  0  0  0  0  0  0  0  0
    5.2326   -0.4195   -2.1723 H   0  0  0  0  0  0  0  0  0  0  0  0
    5.1533   -1.8966   -1.1663 H   0  0  0  0  0  0  0  0  0  0  0  0
    4.3195   -0.6076    0.7574 H   0  0  0  0  0  0  0  0  0  0  0  0
    2.4709   -1.3844   -0.3704 H   0  0  0  0  0  0  0  0  0  0  0  0
    2.8383   -0.4900   -1.8846 H   0  0  0  0  0  0  0  0  0  0  0  0
    1.8916    0.7566    0.7582 H   0  0  0  0  0  0  0  0  0  0  0  0
    0.4147    0.3618   -1.8956 H   0  0  0  0  0  0  0  0  0  0  0  0
   -1.8837   -0.5215   -1.4535 H   0  0  0  0  0  0  0  0  0  0  0  0
   -3.4499    1.3618   -1.7572 H   0  0  0  0  0  0  0  0  0  0  0  0
   -1.7698    1.8235   -2.1051 H   0  0  0  0  0  0  0  0  0  0  0  0
   -0.5095    3.3102   -0.5237 H   0  0  0  0  0  0  0  0  0  0  0  0
   -2.8482    5.5777    2.1767 H   0  0  0  0  0  0  0  0  0  0  0  0
   -4.7978    4.2326    1.7458 H   0  0  0  0  0  0  0  0  0  0  0  0
   -4.6607    2.3519    0.1503 H   0  0  0  0  0  0  0  0  0  0  0  0
   -3.1241    0.3277    1.2131 H   0  0  0  0  0  0  0  0  0  0  0  0
   -4.0227   -4.3919    0.2972 H   0  0  0  0  0  0  0  0  0  0  0  0
   -3.8173   -4.2207    2.0771 H   0  0  0  0  0  0  0  0  0  0  0  0
   -5.1979   -5.1692    1.4045 H   0  0  0  0  0  0  0  0  0  0  0  0
   -6.9134   -3.8296    2.6404 H   0  0  0  0  0  0  0  0  0  0  0  0
   -5.5681   -2.9257    3.4344 H   0  0  0  0  0  0  0  0  0  0  0  0
   -6.8722   -2.0262    2.5827 H   0  0  0  0  0  0  0  0  0  0  0  0
   -6.9675   -2.0425    0.0189 H   0  0  0  0  0  0  0  0  0  0  0  0
   -7.1260   -3.8362    0.1464 H   0  0  0  0  0  0  0  0  0  0  0  0
   -5.8608   -3.1220   -0.9031 H   0  0  0  0  0  0  0  0  0  0  0  0
    1.9630    2.3022   -1.8724 H   0  0  0  0  0  0  0  0  0  0  0  0
    2.1116    2.8704   -0.1771 H   0  0  0  0  0  0  0  0  0  0  0  0
    4.3215    3.1033   -0.9251 H   0  0  0  0  0  0  0  0  0  0  0  0
    4.2332    1.7291   -2.0579 H   0  0  0  0  0  0  0  0  0  0  0  0
  1  2  1  0
  2  3  1  0
  2  4  1  0
  4  5  1  0
  5  6  1  0
  6  7  1  0
  7  8  1  0
  8  9  1  0
  9 10  2  0
  9 11  1  0
 11 12  1  0
 12 13  1  0
 13 14  2  0
 14 15  1  0
 15 16  2  0
 15 17  1  0
 17 18  1  0
 18 19  2  0
 11 20  1  0
 20 21  1  0
 21 22  2  0
 21 23  1  0
 23 24  1  0
 24 25  1  0
 24 26  1  0
 24 27  1  0
  7 28  1  0
 28 29  1  0
 29 30  1  0
 30  5  1  0
 19 13  1  0
  1 31  1  0
  1 32  1  0
  1 33  1  0
  2 34  1  0
  3 35  1  0
  3 36  1  0
  3 37  1  0
  4 38  1  0
  4 39  1  0
  5 40  1  1
  6 41  1  0
  6 42  1  0
  7 43  1  1
  8 44  1  0
 11 45  1  6
 12 46  1  0
 12 47  1  0
 14 48  1  0
 17 49  1  0
 18 50  1  0
 19 51  1  0
 20 52  1  0
 25 53  1  0
 25 54  1  0
 25 55  1  0
 26 56  1  0
 26 57  1  0
 26 58  1  0
 27 59  1  0
 27 60  1  0
 27 61  1  0
 28 62  1  0
 28 63  1  0
 29 64  1  0
 29 65  1  0
M  END
$$$$
mol_34
     RDKit          3D

 42 42  0  0  0  0  0  0  0  0999 V2000
    6.3994    1.5133   -0.0517 C   0  0  0  0  0  0  0  0  0  0  0  0
    4.9291    1.4392    0.3495 C   0  0  0  0  0  0  0  0  0  0  0  0
    4.2777    0.1512   -0.1732 C   0  0  0  0  0  0  0  0  0  0  0  0
    2.8116    0.0333    0.2518 C   0  0  0  0  0  0  0  0  0  0  0  0
    1.7716    1.2506   -0.6348 S   0  0  0  0  0  0  0  0  0  0  0  0
    0.1840    0.6891    0.0859 C   0  0  0  0  0  0  0  0  0  0  0  0
   -0.3519   -0.5550   -0.5800 C   0  0  0  0  0  0  0  0  0  0  0  0
    0.2308   -1.0027   -1.6064 O   0  0  0  0  0  0  0  0  0  0  0  0
   -1.5190   -1.2438   -0.0689 N   0  0  0  0  0  0  0  0  0  0  0  0
   -1.8797   -2.5590   -0.6215 C   0  0  0  0  0  0  0  0  0  0  0  0
   -0.9590   -3.6445   -0.0607 C   0  0  0  0  0  0  0  0  0  0  0  0
   -1.3379   -4.9025   -0.5484 O   0  0  0  0  0  0  0  0  0  0  0  0
   -2.3362   -0.6784    1.0186 C   0  0  0  0  0  0  0  0  0  0  0  0
   -3.1388    0.5012    0.5341 C   0  0  0  0  0  0  0  0  0  0  0  0
   -3.0326    1.7479    1.1743 C   0  0  0  0  0  0  0  0  0  0  0  0
   -3.7873    2.8367    0.7269 C   0  0  0  0  0  0  0  0  0  0  0  0
   -4.6599    2.6877   -0.3547 C   0  0  0  0  0  0  0  0  0  0  0  0
   -5.3913    3.7445   -0.7865 F   0  0  0  0  0  0  0  0  0  0  0  0
   -4.7814    1.4478   -0.9883 C   0  0  0  0  0  0  0  0  0  0  0  0
   -4.0280    0.3567   -0.5444 C   0  0  0  0  0  0  0  0  0  0  0  0
    6.4980    1.5049   -1.1582 H   0  0  0  0  0  0  0  0  0  0  0  0
    6.9595    0.6532    0.3734 H   0  0  0  0  0  0  0  0  0  0  0  0
    6.8441    2.4534    0.3373 H   0  0  0  0  0  0  0  0  0  0  0  0
    4.8579    1.4724    1.4585 H   0  0  0  0  0  0  0  0  0  0  0  0
    4.4035    2.3270   -0.0630 H   0  0  0  0  0  0  0  0  0  0  0  0
    4.8304   -0.7240    0.2333 H   0  0  0  0  0  0  0  0  0  0  0  0
    4.3455    0.1128   -1.2826 H   0  0  0  0  0  0  0  0  0  0  0  0
    2.4560   -0.9911    0.0120 H   0  0  0  0  0  0  0  0  0  0  0  0
    2.7215    0.1848    1.3490 H   0  0  0  0  0  0  0  0  0  0  0  0
    0.3188    0.5139    1.1731 H   0  0  0  0  0  0  0  0  0  0  0  0
   -0.5483    1.5093   -0.0475 H   0  0  0  0  0  0  0  0  0  0  0  0
   -1.8148   -2.5362   -1.7311 H   0  0  0  0  0  0  0  0  0  0  0  0
   -2.9322   -2.8168   -0.3722 H   0  0  0  0  0  0  0  0  0  0  0  0
    0.1019   -3.4323   -0.3242 H   0  0  0  0  0  0  0  0  0  0  0  0
   -1.0405   -3.6551    1.0470 H   0  0  0  0  0  0  0  0  0  0  0  0
   -1.0151   -4.9521   -1.4860 H   0  0  0  0  0  0  0  0  0  0  0  0
   -3.0464   -1.4373    1.4124 H   0  0  0  0  0  0  0  0  0  0  0  0
   -1.6857   -0.4068    1.8764 H   0  0  0  0  0  0  0  0  0  0  0  0
   -2.3622    1.8796    2.0145 H   0  0  0  0  0  0  0  0  0  0  0  0
   -3.6956    3.7956    1.2206 H   0  0  0  0  0  0  0  0  0  0  0  0
   -5.4607    1.3303   -1.8228 H   0  0  0  0  0  0  0  0  0  0  0  0
   -4.1368   -0.5986   -1.0419 H   0  0  0  0  0  0  0  0  0  0  0  0
  1  2  1  0
  2  3  1  0
  3  4  1  0
  4  5  1  0
  5  6  1  0
  6  7  1  0
  7  8  2  0
  7  9  1  0
  9 10  1  0
 10 11  1  0
 11 12  1  0
  9 13  1  0
 13 14  1  0
 14 15  2  0
 15 16  1  0
 16 17  2  0
 17 18  1  0
 17 19  1  0
 19 20  2  0
 20 14  1  0
  1 21  1  0
  1 22  1  0
  1 23  1  0
  2 24  1  0
  2 25  1  0
  3 26  1  0
  3 27  1  0
  4 28  1  0
  4 29  1  0
  6 30  1  0
  6 31  1  0
 10 32  1  0
 10 33  1  0
 11 34  1  0
 11 35  1  0
 12 36  1  0
 13 37  1  0
 13 38  1  0
 15 39  1  0
 16 40  1  0
 19 41  1  0
 20 42  1  0
M  END
$$$$
mol_35
     RDKit          3D

 58 60  0  0  0  0  0  0  0  0999 V2000
    5.7592    1.3075    1.8172 C   0  0  0  0  0  0  0  0  0  0  0  0
    5.5796    1.5384    0.3729 N   0  0  0  0  0  0  0  0  0  0  0  0
    6.5318    0.7311   -0.4115 C   0  0  0  0  0  0  0  0  0  0  0  0
    4.1731    1.3543   -0.0647 C   0  0  0  0  0  0  0  0  0  0  0  0
    3.5921   -0.0584    0.2090 C   0  0  0  0  0  0  0  0  0  0  0  0
    2.2571   -0.2454   -0.4119 N   0  0  0  0  0  0  0  0  0  0  0  0
    1.2446    0.6708    0.1870 C   0  0  0  0  0  0  0  0  0  0  0  0
   -0.2111    0.1821    0.0207 C   0  0  0  0  0  0  0  0  0  0  0  0
   -0.3587   -0.7236   -1.2079 C   0  0  0  0  0  0  0  0  0  0  0  0
   -1.7571   -1.1320   -1.3860 N   0  0  0  0  0  0  0  0  0  0  0  0
   -2.6530   -0.6530   -2.3760 C   0  0  0  0  0  0  0  0  0  0  0  0
   -2.2946    0.0246   -3.3752 O   0  0  0  0  0  0  0  0  0  0  0  0
   -4.0072   -0.9920   -2.1126 N   0  0  0  0  0  0  0  0  0  0  0  0
   -4.0590   -1.7256   -0.8468 C   0  0  2  0  0  0  0  0  0  0  0  0
   -4.6294   -3.1287   -1.0862 C   0  0  0  0  0  0  0  0  0  0  0  0
   -4.8961   -0.9546    0.2037 C   0  0  0  0  0  0  0  0  0  0  0  0
   -4.3126    0.3990    0.5446 C   0  0  0  0  0  0  0  0  0  0  0  0
   -3.5402    0.5651    1.7071 C   0  0  0  0  0  0  0  0  0  0  0  0
   -2.9658    1.8048    2.0020 C   0  0  0  0  0  0  0  0  0  0  0  0
   -3.1616    2.8904    1.1428 C   0  0  0  0  0  0  0  0  0  0  0  0
   -2.4267    4.4407    1.5062 Cl  0  0  0  0  0  0  0  0  0  0  0  0
   -3.9410    2.7373   -0.0082 C   0  0  0  0  0  0  0  0  0  0  0  0
   -4.5179    1.4990   -0.3051 C   0  0  0  0  0  0  0  0  0  0  0  0
   -2.6041   -1.8035   -0.4536 C   0  0  0  0  0  0  0  0  0  0  0  0
   -2.1796   -2.3696    0.5895 O   0  0  0  0  0  0  0  0  0  0  0  0
    0.5697   -1.9515   -1.1102 C   0  0  0  0  0  0  0  0  0  0  0  0
    1.8408   -1.6612   -0.2863 C   0  0  0  0  0  0  0  0  0  0  0  0
    5.0029    1.8756    2.4020 H   0  0  0  0  0  0  0  0  0  0  0  0
    5.6763    0.2283    2.0705 H   0  0  0  0  0  0  0  0  0  0  0  0
    6.7649    1.6583    2.1381 H   0  0  0  0  0  0  0  0  0  0  0  0
    5.8173    2.5435    0.1938 H   0  0  0  0  0  0  0  0  0  0  0  0
    6.4830   -0.3445   -0.1381 H   0  0  0  0  0  0  0  0  0  0  0  0
    7.5712    1.0798   -0.2233 H   0  0  0  0  0  0  0  0  0  0  0  0
    6.3366    0.8378   -1.5010 H   0  0  0  0  0  0  0  0  0  0  0  0
    3.5405    2.1107    0.4498 H   0  0  0  0  0  0  0  0  0  0  0  0
    4.0947    1.5743   -1.1530 H   0  0  0  0  0  0  0  0  0  0  0  0
    3.5270   -0.2366    1.3052 H   0  0  0  0  0  0  0  0  0  0  0  0
    4.2928   -0.8114   -0.2085 H   0  0  0  0  0  0  0  0  0  0  0  0
    2.3474   -0.0286   -1.4341 H   0  0  0  0  0  0  0  0  0  0  0  0
    1.4315    0.8202    1.2748 H   0  0  0  0  0  0  0  0  0  0  0  0
    1.3261    1.6692   -0.2984 H   0  0  0  0  0  0  0  0  0  0  0  0
   -0.5110   -0.3752    0.9345 H   0  0  0  0  0  0  0  0  0  0  0  0
   -0.8887    1.0583   -0.0760 H   0  0  0  0  0  0  0  0  0  0  0  0
   -0.0442   -0.1288   -2.0951 H   0  0  0  0  0  0  0  0  0  0  0  0
   -4.8253   -0.7364   -2.7096 H   0  0  0  0  0  0  0  0  0  0  0  0
   -5.6780   -3.0596   -1.4467 H   0  0  0  0  0  0  0  0  0  0  0  0
   -4.6146   -3.7211   -0.1461 H   0  0  0  0  0  0  0  0  0  0  0  0
   -4.0299   -3.6656   -1.8530 H   0  0  0  0  0  0  0  0  0  0  0  0
   -4.9713   -1.5689    1.1285 H   0  0  0  0  0  0  0  0  0  0  0  0
   -5.9352   -0.8206   -0.1694 H   0  0  0  0  0  0  0  0  0  0  0  0
   -3.3667   -0.2694    2.3750 H   0  0  0  0  0  0  0  0  0  0  0  0
   -2.3620    1.9178    2.8933 H   0  0  0  0  0  0  0  0  0  0  0  0
   -4.0980    3.5757   -0.6747 H   0  0  0  0  0  0  0  0  0  0  0  0
   -5.1186    1.3963   -1.1999 H   0  0  0  0  0  0  0  0  0  0  0  0
    0.8598   -2.2579   -2.1392 H   0  0  0  0  0  0  0  0  0  0  0  0
    0.0454   -2.8158   -0.6507 H   0  0  0  0  0  0  0  0  0  0  0  0
    2.6437   -2.3442   -0.6451 H   0  0  0  0  0  0  0  0  0  0  0  0
    1.6503   -1.9071    0.7839 H   0  0  0  0  0  0  0  0  0  0  0  0
  1  2  1  0
  2  3  1  0
  2  4  1  0
  4  5  1  0
  5  6  1  0
  6  7  1  0
  7  8  1  0
  8  9  1  0
  9 10  1  0
 10 11  1  0
 11 12  2  0
 11 13  1  0
 13 14  1  0
 14 15  1  6
 14 16  1  0
 16 17  1  0
 17 18  2  0
 18 19  1  0
 19 20  2  0
 20 21  1  0
 20 22  1  0
 22 23  2  0
 14 24  1  0
 24 25  2  0
  9 26  1  0
 26 27  1  0
 27  6  1  0
 24 10  1  0
 23 17  1  0
  1 28  1  0
  1 29  1  0
  1 30  1  0
  2 31  1  0
  3 32  1  0
  3 33  1  0
  3 34  1  0
  4 35  1  0
  4 36  1  0
  5 37  1  0
  5 38  1  0
  6 39  1  0
  7 40  1  0
  7 41  1  0
  8 42  1  0
  8 43  1  0
  9 44  1  0
 13 45  1  0
 15 46  1  0
 15 47  1  0
 15 48  1  0
 16 49  1  0
 16 50  1  0
 18 51  1  0
 19 52  1  0
 22 53  1  0
 23 54  1  0
 26 55  1  0
 26 56  1  0
 27 57  1  0
 27 58  1  0
M  CHG  2   2   1   6   1
M  END
$$$$
mol_36
     RDKit          3D

 40 40  0  0  0  0  0  0  0  0999 V2000
    6.0810    1.2746   -0.6841 C   0  0  0  0  0  0  0  0  0  0  0  0
    5.9333   -0.5367   -0.8564 S   0  0  0  0  0  0  0  0  0  0  0  0
    4.3322   -0.7959    0.0160 C   0  0  1  0  0  0  0  0  0  0  0  0
    4.4716   -0.5318    1.5209 C   0  0  0  0  0  0  0  0  0  0  0  0
    3.1873    0.0223   -0.6218 C   0  0  0  0  0  0  0  0  0  0  0  0
    1.8054   -0.4784   -0.2851 C   0  0  0  0  0  0  0  0  0  0  0  0
    1.6452   -1.5183    0.4116 O   0  0  0  0  0  0  0  0  0  0  0  0
    0.6638    0.2386   -0.7765 N   0  0  0  0  0  0  0  0  0  0  0  0
   -0.7125   -0.1983   -0.5165 C   0  0  2  0  0  0  0  0  0  0  0  0
   -1.0672   -1.3558   -1.4730 C   0  0  0  0  0  0  0  0  0  0  0  0
   -2.2773   -1.9639   -1.1099 O   0  0  0  0  0  0  0  0  0  0  0  0
   -1.6737    1.0018   -0.6792 C   0  0  0  0  0  0  0  0  0  0  0  0
   -3.0728    0.7006   -0.2000 C   0  0  0  0  0  0  0  0  0  0  0  0
   -4.1400    0.6393   -1.1120 C   0  0  0  0  0  0  0  0  0  0  0  0
   -5.4351    0.3606   -0.6648 C   0  0  0  0  0  0  0  0  0  0  0  0
   -5.6787    0.1475    0.6986 C   0  0  0  0  0  0  0  0  0  0  0  0
   -6.9647   -0.1318    1.1554 O   0  0  0  0  0  0  0  0  0  0  0  0
   -4.6214    0.2168    1.6112 C   0  0  0  0  0  0  0  0  0  0  0  0
   -3.3254    0.4949    1.1668 C   0  0  0  0  0  0  0  0  0  0  0  0
    6.0633    1.5778    0.3808 H   0  0  0  0  0  0  0  0  0  0  0  0
    5.2762    1.7883   -1.2469 H   0  0  0  0  0  0  0  0  0  0  0  0
    7.0535    1.5897   -1.1143 H   0  0  0  0  0  0  0  0  0  0  0  0
    4.1095   -1.8771   -0.1163 H   0  0  0  0  0  0  0  0  0  0  0  0
    3.5895   -0.9287    2.0647 H   0  0  0  0  0  0  0  0  0  0  0  0
    5.3748   -1.0434    1.9155 H   0  0  0  0  0  0  0  0  0  0  0  0
    4.5471    0.5532    1.7368 H   0  0  0  0  0  0  0  0  0  0  0  0
    3.2567    1.0829   -0.2999 H   0  0  0  0  0  0  0  0  0  0  0  0
    3.2930   -0.0061   -1.7275 H   0  0  0  0  0  0  0  0  0  0  0  0
    0.8303    1.1051   -1.3382 H   0  0  0  0  0  0  0  0  0  0  0  0
   -0.7736   -0.5597    0.5340 H   0  0  0  0  0  0  0  0  0  0  0  0
   -1.1555   -0.9723   -2.5120 H   0  0  0  0  0  0  0  0  0  0  0  0
   -0.2560   -2.1184   -1.4735 H   0  0  0  0  0  0  0  0  0  0  0  0
   -2.0954   -2.4913   -0.2888 H   0  0  0  0  0  0  0  0  0  0  0  0
   -1.6845    1.3221   -1.7446 H   0  0  0  0  0  0  0  0  0  0  0  0
   -1.2866    1.8631   -0.0918 H   0  0  0  0  0  0  0  0  0  0  0  0
   -3.9695    0.7979   -2.1696 H   0  0  0  0  0  0  0  0  0  0  0  0
   -6.2479    0.3104   -1.3782 H   0  0  0  0  0  0  0  0  0  0  0  0
   -7.7517   -0.1884    0.5195 H   0  0  0  0  0  0  0  0  0  0  0  0
   -4.8047    0.0568    2.6661 H   0  0  0  0  0  0  0  0  0  0  0  0
   -2.5195    0.5521    1.8878 H   0  0  0  0  0  0  0  0  0  0  0  0
  1  2  1  0
  2  3  1  0
  3  4  1  0
  3  5  1  0
  5  6  1  0
  6  7  2  0
  6  8  1  0
  8  9  1  0
  9 10  1  0
 10 11  1  0
  9 12  1  0
 12 13  1  0
 13 14  2  0
 14 15  1  0
 15 16  2  0
 16 17  1  0
 16 18  1  0
 18 19  2  0
 19 13  1  0
  1 20  1  0
  1 21  1  0
  1 22  1  0
  3 23  1  1
  4 24  1  0
  4 25  1  0
  4 26  1  0
  5 27  1  0
  5 28  1  0
  8 29  1  0
  9 30  1  1
 10 31  1  0
 10 32  1  0
 11 33  1  0
 12 34  1  0
 12 35  1  0
 14 36  1  0
 15 37  1  0
 17 38  1  0
 18 39  1  0
 19 40  1  0
M  END
$$$$
mol_37
     RDKit          3D

 47 49  0  0  0  0  0  0  0  0999 V2000
   -4.3541    1.6378    1.4523 C   0  0  0  0  0  0  0  0  0  0  0  0
   -3.7448    0.5293    0.5699 C   0  0  2  0  0  0  0  0  0  0  0  0
   -2.3308    0.1995    1.1006 C   0  0  0  0  0  0  0  0  0  0  0  0
   -1.6711   -0.8938    0.2525 C   0  0  2  0  0  0  0  0  0  0  0  0
   -0.3104   -1.1726    0.7264 N   0  0  0  0  0  0  0  0  0  0  0  0
    0.1898   -2.4134    1.2174 C   0  0  0  0  0  0  0  0  0  0  0  0
   -0.5149   -3.4517    1.3257 O   0  0  0  0  0  0  0  0  0  0  0  0
    1.6396   -2.3400    1.5880 C   0  0  0  0  0  0  0  0  0  0  0  0
    1.9847   -0.9592    1.2587 N   0  0  0  0  0  0  0  0  0  0  0  0
    3.2801   -0.3272    1.5067 C   0  0  0  0  0  0  0  0  0  0  0  0
    4.0414   -0.0180    0.2303 C   0  0  0  0  0  0  0  0  0  0  0  0
    5.2239    0.7631    0.2808 C   0  0  0  0  0  0  0  0  0  0  0  0
    5.7383    1.2574    1.4820 O   0  0  0  0  0  0  0  0  0  0  0  0
    5.9190    1.0562   -0.8988 C   0  0  0  0  0  0  0  0  0  0  0  0
    5.4714    0.5687   -2.1264 C   0  0  0  0  0  0  0  0  0  0  0  0
    4.3264   -0.2234   -2.1857 C   0  0  0  0  0  0  0  0  0  0  0  0
    3.6180   -0.5215   -1.0198 C   0  0  0  0  0  0  0  0  0  0  0  0
    0.8144   -0.3068    0.7759 C   0  0  0  0  0  0  0  0  0  0  0  0
    0.7866    0.9049    0.4313 O   0  0  0  0  0  0  0  0  0  0  0  0
   -1.6598   -0.4857   -1.2234 C   0  0  0  0  0  0  0  0  0  0  0  0
   -3.0826   -0.1564   -1.6887 C   0  0  0  0  0  0  0  0  0  0  0  0
   -3.6888    0.9212   -0.8702 N   0  0  1  0  0  0  0  0  0  0  0  0
   -5.0313    1.2257   -1.4075 C   0  0  0  0  0  0  0  0  0  0  0  0
   -5.4434    1.7363    1.2656 H   0  0  0  0  0  0  0  0  0  0  0  0
   -3.8569    2.6117    1.2564 H   0  0  0  0  0  0  0  0  0  0  0  0
   -4.2357    1.3879    2.5284 H   0  0  0  0  0  0  0  0  0  0  0  0
   -4.3777   -0.3810    0.6888 H   0  0  0  0  0  0  0  0  0  0  0  0
   -1.7093    1.1211    1.0867 H   0  0  0  0  0  0  0  0  0  0  0  0
   -2.3960   -0.1564    2.1525 H   0  0  0  0  0  0  0  0  0  0  0  0
   -2.2821   -1.8196    0.3497 H   0  0  0  0  0  0  0  0  0  0  0  0
    2.2404   -3.0453    0.9760 H   0  0  0  0  0  0  0  0  0  0  0  0
    1.7760   -2.5262    2.6743 H   0  0  0  0  0  0  0  0  0  0  0  0
    3.0995    0.6134    2.0698 H   0  0  0  0  0  0  0  0  0  0  0  0
    3.9045   -0.9941    2.1395 H   0  0  0  0  0  0  0  0  0  0  0  0
    5.3291    1.0607    2.3859 H   0  0  0  0  0  0  0  0  0  0  0  0
    6.8171    1.6598   -0.8607 H   0  0  0  0  0  0  0  0  0  0  0  0
    6.0182    0.7980   -3.0320 H   0  0  0  0  0  0  0  0  0  0  0  0
    3.9874   -0.6109   -3.1378 H   0  0  0  0  0  0  0  0  0  0  0  0
    2.7434   -1.1515   -1.1071 H   0  0  0  0  0  0  0  0  0  0  0  0
   -1.0118    0.4031   -1.3801 H   0  0  0  0  0  0  0  0  0  0  0  0
   -1.2559   -1.3208   -1.8359 H   0  0  0  0  0  0  0  0  0  0  0  0
   -3.7067   -1.0788   -1.6447 H   0  0  0  0  0  0  0  0  0  0  0  0
   -3.0221    0.1585   -2.7552 H   0  0  0  0  0  0  0  0  0  0  0  0
   -3.1013    1.7838   -0.9723 H   0  0  0  0  0  0  0  0  0  0  0  0
   -5.4214    2.1740   -0.9812 H   0  0  0  0  0  0  0  0  0  0  0  0
   -5.7470    0.4020   -1.1903 H   0  0  0  0  0  0  0  0  0  0  0  0
   -4.9937    1.3800   -2.5087 H   0  0  0  0  0  0  0  0  0  0  0  0
  1  2  1  0
  2  3  1  0
  3  4  1  0
  4  5  1  0
  5  6  1  0
  6  7  2  0
  6  8  1  0
  8  9  1  0
  9 10  1  0
 10 11  1  0
 11 12  2  0
 12 13  1  0
 12 14  1  0
 14 15  2  0
 15 16  1  0
 16 17  2  0
  9 18  1  0
 18 19  2  0
  4 20  1  0
 20 21  1  0
 21 22  1  0
 22 23  1  0
 22  2  1  0
 18  5  1  0
 17 11  1  0
  1 24  1  0
  1 25  1  0
  1 26  1  0
  2 27  1  6
  3 28  1  0
  3 29  1  0
  4 30  1  6
  8 31  1  0
  8 32  1  0
 10 33  1  0
 10 34  1  0
 13 35  1  0
 14 36  1  0
 15 37  1  0
 16 38  1  0
 17 39  1  0
 20 40  1  0
 20 41  1  0
 21 42  1  0
 21 43  1  0
 22 44  1  1
 23 45  1  0
 23 46  1  0
 23 47  1  0
M  CHG  1  22   1
M  END
$$$$
mol_38
     RDKit          3D

 57 58  0  0  0  0  0  0  0  0999 V2000
    7.1235   -1.9550    0.9401 C   0  0  0  0  0  0  0  0  0  0  0  0
    5.9516   -1.0045    1.2206 C   0  0  0  0  0  0  0  0  0  0  0  0
    4.6641   -1.8166    1.4309 C   0  0  0  0  0  0  0  0  0  0  0  0
    5.8165    0.0183    0.0672 C   0  0  0  0  0  0  0  0  0  0  0  0
    4.8516    1.1764    0.3771 C   0  0  0  0  0  0  0  0  0  0  0  0
    3.5019    0.7593    0.2829 O   0  0  0  0  0  0  0  0  0  0  0  0
    2.9932    0.9045   -1.0348 C   0  0  0  0  0  0  0  0  0  0  0  0
    2.0702   -0.2854   -1.3474 C   0  0  0  0  0  0  0  0  0  0  0  0
    0.8207   -0.2828   -0.4547 C   0  0  0  0  0  0  0  0  0  0  0  0
    0.0522    1.0425   -0.5860 C   0  0  0  0  0  0  0  0  0  0  0  0
   -1.0941    1.0390    0.3277 N   0  0  0  0  0  0  0  0  0  0  0  0
   -2.4559    1.1184   -0.1182 C   0  0  0  0  0  0  0  0  0  0  0  0
   -2.7199    1.1941   -1.3508 O   0  0  0  0  0  0  0  0  0  0  0  0
   -3.5196    1.1056    0.8444 N   0  0  0  0  0  0  0  0  0  0  0  0
   -4.9309    1.0641    0.4387 C   0  0  2  0  0  0  0  0  0  0  0  0
   -5.8597    1.5183    1.5422 C   0  0  0  0  0  0  0  0  0  0  0  0
   -7.2520    1.6859    1.2722 N   0  0  0  0  0  0  0  0  0  0  0  0
   -5.4253    1.7565    2.7020 O   0  0  0  0  0  0  0  0  0  0  0  0
   -5.2912   -0.3368   -0.0018 C   0  0  0  0  0  0  0  0  0  0  0  0
   -5.1415   -1.4233    0.8797 C   0  0  0  0  0  0  0  0  0  0  0  0
   -5.4656   -2.7188    0.4663 C   0  0  0  0  0  0  0  0  0  0  0  0
   -5.9411   -2.9429   -0.8293 C   0  0  0  0  0  0  0  0  0  0  0  0
   -6.3386   -4.5693   -1.3504 Cl  0  0  0  0  0  0  0  0  0  0  0  0
   -6.0963   -1.8690   -1.7111 C   0  0  0  0  0  0  0  0  0  0  0  0
   -5.7732   -0.5717   -1.3014 C   0  0  0  0  0  0  0  0  0  0  0  0
    0.9669    2.2356   -0.2636 C   0  0  0  0  0  0  0  0  0  0  0  0
    2.2164    2.2294   -1.1563 C   0  0  0  0  0  0  0  0  0  0  0  0
    6.9529   -2.5192   -0.0036 H   0  0  0  0  0  0  0  0  0  0  0  0
    7.2434   -2.6793    1.7751 H   0  0  0  0  0  0  0  0  0  0  0  0
    8.0706   -1.3808    0.8488 H   0  0  0  0  0  0  0  0  0  0  0  0
    6.1814   -0.4598    2.1630 H   0  0  0  0  0  0  0  0  0  0  0  0
    4.8299   -2.6130    2.1878 H   0  0  0  0  0  0  0  0  0  0  0  0
    4.3381   -2.2918    0.4800 H   0  0  0  0  0  0  0  0  0  0  0  0
    3.8501   -1.1689    1.8152 H   0  0  0  0  0  0  0  0  0  0  0  0
    5.5086   -0.4985   -0.8675 H   0  0  0  0  0  0  0  0  0  0  0  0
    6.8153    0.4680   -0.1253 H   0  0  0  0  0  0  0  0  0  0  0  0
    5.0339    1.5381    1.4114 H   0  0  0  0  0  0  0  0  0  0  0  0
    5.0738    2.0454   -0.2859 H   0  0  0  0  0  0  0  0  0  0  0  0
    3.7956    0.8959   -1.8124 H   0  0  0  0  0  0  0  0  0  0  0  0
    1.7611   -0.2452   -2.4157 H   0  0  0  0  0  0  0  0  0  0  0  0
    2.6275   -1.2357   -1.1955 H   0  0  0  0  0  0  0  0  0  0  0  0
    1.1188   -0.4484    0.6043 H   0  0  0  0  0  0  0  0  0  0  0  0
    0.1587   -1.1230   -0.7562 H   0  0  0  0  0  0  0  0  0  0  0  0
   -0.2912    1.1425   -1.6398 H   0  0  0  0  0  0  0  0  0  0  0  0
   -0.9103    0.9651    1.3553 H   0  0  0  0  0  0  0  0  0  0  0  0
   -3.2613    1.0140    1.8543 H   0  0  0  0  0  0  0  0  0  0  0  0
   -5.0733    1.7820   -0.4001 H   0  0  0  0  0  0  0  0  0  0  0  0
   -7.6347    1.5003    0.3174 H   0  0  0  0  0  0  0  0  0  0  0  0
   -7.9024    1.9952    2.0269 H   0  0  0  0  0  0  0  0  0  0  0  0
   -4.7718   -1.2653    1.8853 H   0  0  0  0  0  0  0  0  0  0  0  0
   -5.3446   -3.5467    1.1530 H   0  0  0  0  0  0  0  0  0  0  0  0
   -6.4662   -2.0386   -2.7147 H   0  0  0  0  0  0  0  0  0  0  0  0
   -5.8975    0.2473   -1.9992 H   0  0  0  0  0  0  0  0  0  0  0  0
    1.2737    2.2040    0.8052 H   0  0  0  0  0  0  0  0  0  0  0  0
    0.4083    3.1825   -0.4290 H   0  0  0  0  0  0  0  0  0  0  0  0
    2.8746    3.0781   -0.8703 H   0  0  0  0  0  0  0  0  0  0  0  0
    1.9132    2.3839   -2.2159 H   0  0  0  0  0  0  0  0  0  0  0  0
  1  2  1  0
  2  3  1  0
  2  4  1  0
  4  5  1  0
  5  6  1  0
  6  7  1  0
  7  8  1  0
  8  9  1  0
  9 10  1  0
 10 11  1  0
 11 12  1  0
 12 13  2  0
 12 14  1  0
 14 15  1  0
 15 16  1  0
 16 17  1  0
 16 18  2  0
 15 19  1  0
 19 20  2  0
 20 21  1  0
 21 22  2  0
 22 23  1  0
 22 24  1  0
 24 25  2  0
 10 26  1  0
 26 27  1  0
 27  7  1  0
 25 19  1  0
  1 28  1  0
  1 29  1  0
  1 30  1  0
  2 31  1  0
  3 32  1  0
  3 33  1  0
  3 34  1  0
  4 35  1  0
  4 36  1  0
  5 37  1  0
  5 38  1  0
  7 39  1  0
  8 40  1  0
  8 41  1  0
  9 42  1  0
  9 43  1  0
 10 44  1  0
 11 45  1  0
 14 46  1  0
 15 47  1  6
 17 48  1  0
 17 49  1  0
 20 50  1  0
 21 51  1  0
 24 52  1  0
 25 53  1  0
 26 54  1  0
 26 55  1  0
 27 56  1  0
 27 57  1  0
M  END
$$$$
mol_39
     RDKit          3D

 53 54  0  0  0  0  0  0  0  0999 V2000
   -4.3249    1.2429    2.4227 C   0  0  0  0  0  0  0  0  0  0  0  0
   -3.9095   -0.0678    1.7218 C   0  0  2  0  0  0  0  0  0  0  0  0
   -2.9949    0.2849    0.5262 C   0  0  0  0  0  0  0  0  0  0  0  0
   -2.5554   -0.9775   -0.2230 C   0  0  2  0  0  0  0  0  0  0  0  0
   -1.7725   -0.6050   -1.4049 N   0  0  0  0  0  0  0  0  0  0  0  0
   -0.4094   -1.0069   -1.6045 C   0  0  0  0  0  0  0  0  0  0  0  0
    0.1708   -1.7385   -0.7555 O   0  0  0  0  0  0  0  0  0  0  0  0
    0.2933   -0.5723   -2.7773 N   0  0  0  0  0  0  0  0  0  0  0  0
    1.6864   -0.9308   -3.0381 C   0  0  0  0  0  0  0  0  0  0  0  0
    2.5999   -0.2500   -2.0536 C   0  0  0  0  0  0  0  0  0  0  0  0
    3.4144   -1.0015   -1.1974 C   0  0  0  0  0  0  0  0  0  0  0  0
    4.2579   -0.3645   -0.2836 C   0  0  0  0  0  0  0  0  0  0  0  0
    4.2951    1.0429   -0.1913 C   0  0  0  0  0  0  0  0  0  0  0  0
    5.2249    1.7335    0.8114 C   0  0  0  0  0  0  0  0  0  0  0  0
    4.9711    1.1921    2.2355 C   0  0  0  0  0  0  0  0  0  0  0  0
    6.6895    1.4836    0.3990 C   0  0  0  0  0  0  0  0  0  0  0  0
    4.9762    3.1230    0.8126 O   0  0  0  0  0  0  0  0  0  0  0  0
    3.4881    1.7893   -1.0766 C   0  0  0  0  0  0  0  0  0  0  0  0
    2.6513    1.1484   -1.9940 C   0  0  0  0  0  0  0  0  0  0  0  0
   -3.7848   -1.7832   -0.6500 C   0  0  0  0  0  0  0  0  0  0  0  0
   -4.6592   -2.0995    0.5681 C   0  0  0  0  0  0  0  0  0  0  0  0
   -5.0896   -0.8633    1.2667 N   0  0  1  0  0  0  0  0  0  0  0  0
   -5.9628   -1.2406    2.3978 C   0  0  0  0  0  0  0  0  0  0  0  0
   -5.0471    1.8096    1.7953 H   0  0  0  0  0  0  0  0  0  0  0  0
   -3.4357    1.8833    2.6092 H   0  0  0  0  0  0  0  0  0  0  0  0
   -4.7803    1.0351    3.4126 H   0  0  0  0  0  0  0  0  0  0  0  0
   -3.3097   -0.6640    2.4502 H   0  0  0  0  0  0  0  0  0  0  0  0
   -3.5358    0.9640   -0.1718 H   0  0  0  0  0  0  0  0  0  0  0  0
   -2.0877    0.8171    0.8911 H   0  0  0  0  0  0  0  0  0  0  0  0
   -1.9456   -1.6026    0.4684 H   0  0  0  0  0  0  0  0  0  0  0  0
   -2.2273   -0.0118   -2.1365 H   0  0  0  0  0  0  0  0  0  0  0  0
   -0.2159   -0.0041   -3.4920 H   0  0  0  0  0  0  0  0  0  0  0  0
    1.7952   -2.0369   -2.9975 H   0  0  0  0  0  0  0  0  0  0  0  0
    1.9648   -0.6086   -4.0652 H   0  0  0  0  0  0  0  0  0  0  0  0
    3.3987   -2.0841   -1.2346 H   0  0  0  0  0  0  0  0  0  0  0  0
    4.8845   -0.9790    0.3496 H   0  0  0  0  0  0  0  0  0  0  0  0
    5.2407    0.1199    2.3231 H   0  0  0  0  0  0  0  0  0  0  0  0
    5.5819    1.7496    2.9772 H   0  0  0  0  0  0  0  0  0  0  0  0
    3.9006    1.3160    2.5061 H   0  0  0  0  0  0  0  0  0  0  0  0
    6.9250    0.3976    0.3914 H   0  0  0  0  0  0  0  0  0  0  0  0
    7.3854    1.9804    1.1085 H   0  0  0  0  0  0  0  0  0  0  0  0
    6.8773    1.8938   -0.6167 H   0  0  0  0  0  0  0  0  0  0  0  0
    5.6104    3.5547    1.4435 H   0  0  0  0  0  0  0  0  0  0  0  0
    3.4979    2.8709   -1.0686 H   0  0  0  0  0  0  0  0  0  0  0  0
    2.0394    1.7452   -2.6604 H   0  0  0  0  0  0  0  0  0  0  0  0
   -4.3807   -1.2098   -1.3955 H   0  0  0  0  0  0  0  0  0  0  0  0
   -3.4587   -2.7347   -1.1248 H   0  0  0  0  0  0  0  0  0  0  0  0
   -5.5477   -2.6655    0.2045 H   0  0  0  0  0  0  0  0  0  0  0  0
   -4.0956   -2.7656    1.2635 H   0  0  0  0  0  0  0  0  0  0  0  0
   -5.6603   -0.2882    0.5992 H   0  0  0  0  0  0  0  0  0  0  0  0
   -5.3790   -1.7259    3.2133 H   0  0  0  0  0  0  0  0  0  0  0  0
   -6.7591   -1.9450    2.0666 H   0  0  0  0  0  0  0  0  0  0  0  0
   -6.4912   -0.3506    2.8037 H   0  0  0  0  0  0  0  0  0  0  0  0
  1  2  1  0
  2  3  1  0
  3  4  1  0
  4  5  1  0
  5  6  1  0
  6  7  2  0
  6  8  1  0
  8  9  1  0
  9 10  1  0
 10 11  2  0
 11 12  1  0
 12 13  2  0
 13 14  1  0
 14 15  1  0
 14 16  1  0
 14 17  1  0
 13 18  1  0
 18 19  2  0
  4 20  1  0
 20 21  1  0
 21 22  1  0
 22 23  1  0
 22  2  1  0
 19 10  1  0
  1 24  1  0
  1 25  1  0
  1 26  1  0
  2 27  1  1
  3 28  1  0
  3 29  1  0
  4 30  1  1
  5 31  1  0
  8 32  1  0
  9 33  1  0
  9 34  1  0
 11 35  1  0
 12 36  1  0
 15 37  1  0
 15 38  1  0
 15 39  1  0
 16 40  1  0
 16 41  1  0
 16 42  1  0
 17 43  1  0
 18 44  1  0
 19 45  1  0
 20 46  1  0
 20 47  1  0
 21 48  1  0
 21 49  1  0
 22 50  1  6
 23 51  1  0
 23 52  1  0
 23 53  1  0
M  CHG  1  22   1
M  END
$$$$
mol_40
     RDKit          3D

 41 41  0  0  0  0  0  0  0  0999 V2000
   -3.4533    2.6466    2.1225 C   0  0  0  0  0  0  0  0  0  0  0  0
   -2.6289    1.7396    1.4267 O   0  0  0  0  0  0  0  0  0  0  0  0
   -2.7977    0.4437    1.9648 C   0  0  0  0  0  0  0  0  0  0  0  0
   -1.9245   -0.5719    1.2086 C   0  0  2  0  0  0  0  0  0  0  0  0
   -0.5026   -0.2209    1.3076 N   0  0  0  0  0  0  0  0  0  0  0  0
    0.5337   -1.1064    0.8613 C   0  0  0  0  0  0  0  0  0  0  0  0
    0.2454   -2.2661    0.4564 O   0  0  0  0  0  0  0  0  0  0  0  0
    1.8968   -0.6665    0.8687 N   0  0  0  0  0  0  0  0  0  0  0  0
    2.9788   -1.5205    0.3769 C   0  0  0  0  0  0  0  0  0  0  0  0
    4.3204   -0.7677    0.3159 C   0  0  0  0  0  0  0  0  0  0  0  0
    4.5206    0.0372   -0.9902 C   0  0  2  0  0  0  0  0  0  0  0  0
    5.8495    0.4879   -1.0797 O   0  0  0  0  0  0  0  0  0  0  0  0
    3.5483    1.2197   -1.1385 C   0  0  0  0  0  0  0  0  0  0  0  0
    3.8367    1.9166   -2.2982 F   0  0  0  0  0  0  0  0  0  0  0  0
    3.6534    2.0801   -0.0594 F   0  0  0  0  0  0  0  0  0  0  0  0
   -2.3512   -0.6768   -0.2432 C   0  0  0  0  0  0  0  0  0  0  0  0
   -3.1190   -1.7733   -0.6732 C   0  0  0  0  0  0  0  0  0  0  0  0
   -3.5150   -1.8784   -2.0098 C   0  0  0  0  0  0  0  0  0  0  0  0
   -3.1493   -0.8927   -2.9295 C   0  0  0  0  0  0  0  0  0  0  0  0
   -2.3863    0.2026   -2.5144 C   0  0  0  0  0  0  0  0  0  0  0  0
   -1.8817    1.5474   -3.7730 Br  0  0  0  0  0  0  0  0  0  0  0  0
   -1.9895    0.3125   -1.1777 C   0  0  0  0  0  0  0  0  0  0  0  0
   -3.3041    3.6590    1.6945 H   0  0  0  0  0  0  0  0  0  0  0  0
   -4.5286    2.3864    2.0029 H   0  0  0  0  0  0  0  0  0  0  0  0
   -3.1814    2.6938    3.2006 H   0  0  0  0  0  0  0  0  0  0  0  0
   -3.8614    0.1183    1.8873 H   0  0  0  0  0  0  0  0  0  0  0  0
   -2.4983    0.4256    3.0382 H   0  0  0  0  0  0  0  0  0  0  0  0
   -2.0720   -1.5535    1.7130 H   0  0  0  0  0  0  0  0  0  0  0  0
   -0.2231    0.7076    1.6983 H   0  0  0  0  0  0  0  0  0  0  0  0
    2.1058    0.2907    1.2318 H   0  0  0  0  0  0  0  0  0  0  0  0
    3.0837   -2.3857    1.0668 H   0  0  0  0  0  0  0  0  0  0  0  0
    2.7195   -1.9188   -0.6283 H   0  0  0  0  0  0  0  0  0  0  0  0
    4.4399   -0.1115    1.2056 H   0  0  0  0  0  0  0  0  0  0  0  0
    5.1325   -1.5256    0.3692 H   0  0  0  0  0  0  0  0  0  0  0  0
    4.3500   -0.6481   -1.8490 H   0  0  0  0  0  0  0  0  0  0  0  0
    6.0199    1.0794   -0.3003 H   0  0  0  0  0  0  0  0  0  0  0  0
    2.5039    0.8526   -1.2118 H   0  0  0  0  0  0  0  0  0  0  0  0
   -3.4135   -2.5462    0.0256 H   0  0  0  0  0  0  0  0  0  0  0  0
   -4.1062   -2.7255   -2.3329 H   0  0  0  0  0  0  0  0  0  0  0  0
   -3.4583   -0.9808   -3.9631 H   0  0  0  0  0  0  0  0  0  0  0  0
   -1.3931    1.1626   -0.8712 H   0  0  0  0  0  0  0  0  0  0  0  0
  1  2  1  0
  2  3  1  0
  3  4  1  0
  4  5  1  0
  5  6  1  0
  6  7  2  0
  6  8  1  0
  8  9  1  0
  9 10  1  0
 10 11  1  0
 11 12  1  0
 11 13  1  0
 13 14  1  0
 13 15  1  0
  4 16  1  0
 16 17  2  0
 17 18  1  0
 18 19  2  0
 19 20  1  0
 20 21  1  0
 20 22  2  0
 22 16  1  0
  1 23  1  0
  1 24  1  0
  1 25  1  0
  3 26  1  0
  3 27  1  0
  4 28  1  1
  5 29  1  0
  8 30  1  0
  9 31  1  0
  9 32  1  0
 10 33  1  0
 10 34  1  0
 11 35  1  6
 12 36  1  0
 13 37  1  0
 17 38  1  0
 18 39  1  0
 19 40  1  0
 22 41  1  0
M  END
$$$$
mol_41
     RDKit          3D

 56 58  0  0  0  0  0  0  0  0999 V2000
    1.8068    3.0709   -0.1390 C   0  0  0  0  0  0  0  0  0  0  0  0
    3.3379    3.0165   -0.2486 C   0  0  0  0  0  0  0  0  0  0  0  0
    3.9501    4.2220    0.4761 C   0  0  0  0  0  0  0  0  0  0  0  0
    3.9299    1.7051    0.3325 C   0  0  0  0  0  0  0  0  0  0  0  0
    3.6251    0.4175   -0.4609 C   0  0  1  0  0  0  0  0  0  0  0  0
    2.3379   -0.2984    0.0326 C   0  0  0  0  0  0  0  0  0  0  0  0
    2.1536   -1.6098   -0.7508 C   0  0  1  0  0  0  0  0  0  0  0  0
    0.8087   -2.1692   -0.5385 N   0  0  0  0  0  0  0  0  0  0  0  0
   -0.4046   -1.6138   -1.0776 C   0  0  0  0  0  0  0  0  0  0  0  0
   -0.3965   -0.5054   -1.6752 O   0  0  0  0  0  0  0  0  0  0  0  0
   -1.6915   -2.3822   -0.9773 C   0  0  0  0  0  0  0  0  0  0  0  0
   -2.3318   -2.2898    0.4284 C   0  0  1  0  0  0  0  0  0  0  0  0
   -2.5617   -0.8550    0.9013 C   0  0  0  0  0  0  0  0  0  0  0  0
   -3.1097    0.1324    0.0554 C   0  0  0  0  0  0  0  0  0  0  0  0
   -3.3388    1.4273    0.5313 C   0  0  0  0  0  0  0  0  0  0  0  0
   -3.0122    1.7632    1.8493 C   0  0  0  0  0  0  0  0  0  0  0  0
   -3.2622    3.0538    2.3117 O   0  0  0  0  0  0  0  0  0  0  0  0
   -2.4444    0.7986    2.6933 C   0  0  0  0  0  0  0  0  0  0  0  0
   -2.2194   -0.4999    2.2199 C   0  0  0  0  0  0  0  0  0  0  0  0
   -3.5704   -3.2297    0.4967 C   0  0  0  0  0  0  0  0  0  0  0  0
   -4.8141   -2.8134   -0.2786 C   0  0  0  0  0  0  0  0  0  0  0  0
   -4.8262   -2.7900    1.2460 C   0  0  0  0  0  0  0  0  0  0  0  0
    2.4844   -1.4405   -2.2539 C   0  0  0  0  0  0  0  0  0  0  0  0
    2.6827    0.0372   -2.6301 C   0  0  0  0  0  0  0  0  0  0  0  0
    3.7023    0.6665   -1.8678 O   0  0  0  0  0  0  0  0  0  0  0  0
    1.4345    4.0998   -0.3287 H   0  0  0  0  0  0  0  0  0  0  0  0
    1.4719    2.7575    0.8745 H   0  0  0  0  0  0  0  0  0  0  0  0
    1.3441    2.4252   -0.9109 H   0  0  0  0  0  0  0  0  0  0  0  0
    3.6152    3.1049   -1.3225 H   0  0  0  0  0  0  0  0  0  0  0  0
    5.0523    4.2221    0.3526 H   0  0  0  0  0  0  0  0  0  0  0  0
    3.7051    4.1950    1.5587 H   0  0  0  0  0  0  0  0  0  0  0  0
    3.5638    5.1692    0.0419 H   0  0  0  0  0  0  0  0  0  0  0  0
    3.6239    1.5854    1.3912 H   0  0  0  0  0  0  0  0  0  0  0  0
    5.0345    1.8147    0.3525 H   0  0  0  0  0  0  0  0  0  0  0  0
    4.4536   -0.2845   -0.2212 H   0  0  0  0  0  0  0  0  0  0  0  0
    2.4247   -0.5299    1.1192 H   0  0  0  0  0  0  0  0  0  0  0  0
    1.4492    0.3490   -0.0926 H   0  0  0  0  0  0  0  0  0  0  0  0
    2.8883   -2.3366   -0.3346 H   0  0  0  0  0  0  0  0  0  0  0  0
    0.7354   -3.0512    0.0213 H   0  0  0  0  0  0  0  0  0  0  0  0
   -1.4775   -3.4476   -1.2143 H   0  0  0  0  0  0  0  0  0  0  0  0
   -2.4085   -2.0292   -1.7544 H   0  0  0  0  0  0  0  0  0  0  0  0
   -1.5954   -2.7508    1.1280 H   0  0  0  0  0  0  0  0  0  0  0  0
   -3.3445   -0.0824   -0.9790 H   0  0  0  0  0  0  0  0  0  0  0  0
   -3.7641    2.1743   -0.1307 H   0  0  0  0  0  0  0  0  0  0  0  0
   -3.0181    3.3351    3.2594 H   0  0  0  0  0  0  0  0  0  0  0  0
   -2.1895    1.0500    3.7106 H   0  0  0  0  0  0  0  0  0  0  0  0
   -1.7848   -1.2298    2.8948 H   0  0  0  0  0  0  0  0  0  0  0  0
   -3.3892   -4.3249    0.4924 H   0  0  0  0  0  0  0  0  0  0  0  0
   -5.3831   -3.6585   -0.7202 H   0  0  0  0  0  0  0  0  0  0  0  0
   -4.8139   -1.8104   -0.7372 H   0  0  0  0  0  0  0  0  0  0  0  0
   -5.4254   -3.6199    1.6828 H   0  0  0  0  0  0  0  0  0  0  0  0
   -4.8574   -1.7674    1.6712 H   0  0  0  0  0  0  0  0  0  0  0  0
    1.6908   -1.8826   -2.8942 H   0  0  0  0  0  0  0  0  0  0  0  0
    3.4246   -1.9861   -2.4869 H   0  0  0  0  0  0  0  0  0  0  0  0
    1.7363    0.6046   -2.5239 H   0  0  0  0  0  0  0  0  0  0  0  0
    2.9675    0.0908   -3.7056 H   0  0  0  0  0  0  0  0  0  0  0  0
  1  2  1  0
  2  3  1  0
  2  4  1  0
  4  5  1  0
  5  6  1  0
  6  7  1  0
  7  8  1  0
  8  9  1  0
  9 10  2  0
  9 11  1  0
 11 12  1  0
 12 13  1  0
 13 14  2  0
 14 15  1  0
 15 16  2  0
 16 17  1  0
 16 18  1  0
 18 19  2  0
 12 20  1  0
 20 21  1  0
 21 22  1  0
  7 23  1  0
 23 24  1  0
 24 25  1  0
 25  5  1  0
 19 13  1  0
 22 20  1  0
  1 26  1  0
  1 27  1  0
  1 28  1  0
  2 29  1  0
  3 30  1  0
  3 31  1  0
  3 32  1  0
  4 33  1  0
  4 34  1  0
  5 35  1  1
  6 36  1  0
  6 37  1  0
  7 38  1  1
  8 39  1  0
 11 40  1  0
 11 41  1  0
 12 42  1  1
 14 43  1  0
 15 44  1  0
 17 45  1  0
 18 46  1  0
 19 47  1  0
 20 48  1  0
 21 49  1  0
 21 50  1  0
 22 51  1  0
 22 52  1  0
 23 53  1  0
 23 54  1  0
 24 55  1  0
 24 56  1  0
M  END
$$$$
mol_42
     RDKit          3D

 45 45  0  0  0  0  0  0  0  0999 V2000
    5.8759    0.3984    0.0411 C   0  0  0  0  0  0  0  0  0  0  0  0
    4.6223   -0.4017   -0.3501 C   0  0  0  0  0  0  0  0  0  0  0  0
    4.1514    0.0635   -1.7396 C   0  0  0  0  0  0  0  0  0  0  0  0
    4.9798   -1.8999   -0.3784 C   0  0  0  0  0  0  0  0  0  0  0  0
    3.3314   -0.0301    0.9183 S   0  0  0  0  0  0  0  0  0  0  0  0
    2.0914   -1.3146    0.5216 C   0  0  0  0  0  0  0  0  0  0  0  0
    0.8091   -0.9973    1.2223 C   0  0  0  0  0  0  0  0  0  0  0  0
    0.3752   -1.7780    2.1126 O   0  0  0  0  0  0  0  0  0  0  0  0
    0.0717    0.1804    0.8708 N   0  0  0  0  0  0  0  0  0  0  0  0
   -1.1977    0.5092    1.5209 C   0  0  0  0  0  0  0  0  0  0  0  0
   -1.8956    1.7143    0.8444 C   0  0  1  0  0  0  0  0  0  0  0  0
   -2.2644    1.4420   -0.6363 C   0  0  0  0  0  0  0  0  0  0  0  0
   -3.1509    0.2329   -0.8240 C   0  0  0  0  0  0  0  0  0  0  0  0
   -4.5380    0.3264   -0.6185 C   0  0  0  0  0  0  0  0  0  0  0  0
   -5.3541   -0.7952   -0.7939 C   0  0  0  0  0  0  0  0  0  0  0  0
   -4.7943   -2.0158   -1.1818 C   0  0  0  0  0  0  0  0  0  0  0  0
   -5.5874   -3.1023   -1.3508 F   0  0  0  0  0  0  0  0  0  0  0  0
   -3.4172   -2.1150   -1.3990 C   0  0  0  0  0  0  0  0  0  0  0  0
   -2.5978   -0.9955   -1.2258 C   0  0  0  0  0  0  0  0  0  0  0  0
   -3.1065    2.1742    1.6263 C   0  0  0  0  0  0  0  0  0  0  0  0
   -3.6832    3.4535    1.3621 N   0  0  0  0  0  0  0  0  0  0  0  0
   -3.6209    1.4377    2.5116 O   0  0  0  0  0  0  0  0  0  0  0  0
    6.2373    0.0869    1.0450 H   0  0  0  0  0  0  0  0  0  0  0  0
    6.6961    0.2363   -0.6915 H   0  0  0  0  0  0  0  0  0  0  0  0
    5.6493    1.4861    0.0752 H   0  0  0  0  0  0  0  0  0  0  0  0
    3.2965   -0.5401   -2.1039 H   0  0  0  0  0  0  0  0  0  0  0  0
    4.9720   -0.0374   -2.4825 H   0  0  0  0  0  0  0  0  0  0  0  0
    3.8382    1.1291   -1.7057 H   0  0  0  0  0  0  0  0  0  0  0  0
    4.1528   -2.5053   -0.8036 H   0  0  0  0  0  0  0  0  0  0  0  0
    5.8745   -2.0755   -1.0141 H   0  0  0  0  0  0  0  0  0  0  0  0
    5.2007   -2.2645    0.6476 H   0  0  0  0  0  0  0  0  0  0  0  0
    2.4676   -2.3018    0.8641 H   0  0  0  0  0  0  0  0  0  0  0  0
    1.8908   -1.3616   -0.5661 H   0  0  0  0  0  0  0  0  0  0  0  0
    0.4694    0.8150    0.1420 H   0  0  0  0  0  0  0  0  0  0  0  0
   -1.8669   -0.3782    1.5012 H   0  0  0  0  0  0  0  0  0  0  0  0
   -0.9915    0.7538    2.5859 H   0  0  0  0  0  0  0  0  0  0  0  0
   -1.1703    2.5579    0.8592 H   0  0  0  0  0  0  0  0  0  0  0  0
   -1.3334    1.3164   -1.2292 H   0  0  0  0  0  0  0  0  0  0  0  0
   -2.7660    2.3335   -1.0719 H   0  0  0  0  0  0  0  0  0  0  0  0
   -4.9878    1.2670   -0.3269 H   0  0  0  0  0  0  0  0  0  0  0  0
   -6.4213   -0.7164   -0.6308 H   0  0  0  0  0  0  0  0  0  0  0  0
   -2.9832   -3.0593   -1.7015 H   0  0  0  0  0  0  0  0  0  0  0  0
   -1.5319   -1.0893   -1.3938 H   0  0  0  0  0  0  0  0  0  0  0  0
   -3.2644    4.0913    0.6495 H   0  0  0  0  0  0  0  0  0  0  0  0
   -4.5282    3.7690    1.8881 H   0  0  0  0  0  0  0  0  0  0  0  0
  1  2  1  0
  2  3  1  0
  2  4  1  0
  2  5  1  0
  5  6  1  0
  6  7  1  0
  7  8  2  0
  7  9  1  0
  9 10  1  0
 10 11  1  0
 11 12  1  0
 12 13  1  0
 13 14  2  0
 14 15  1  0
 15 16  2  0
 16 17  1  0
 16 18  1  0
 18 19  2  0
 11 20  1  0
 20 21  1  0
 20 22  2  0
 19 13  1  0
  1 23  1  0
  1 24  1  0
  1 25  1  0
  3 26  1  0
  3 27  1  0
  3 28  1  0
  4 29  1  0
  4 30  1  0
  4 31  1  0
  6 32  1  0
  6 33  1  0
  9 34  1  0
 10 35  1  0
 10 36  1  0
 11 37  1  6
 12 38  1  0
 12 39  1  0
 14 40  1  0
 15 41  1  0
 18 42  1  0
 19 43  1  0
 21 44  1  0
 21 45  1  0
M  END
$$$$
mol_43
     RDKit          3D

 61 62  0  0  0  0  0  0  0  0999 V2000
    5.1137   -2.2859    2.9532 C   0  0  0  0  0  0  0  0  0  0  0  0
    4.5150   -2.1629    1.5534 C   0  0  0  0  0  0  0  0  0  0  0  0
    3.3310   -1.1783    1.5416 C   0  0  0  0  0  0  0  0  0  0  0  0
    2.6984   -1.0651    0.2018 N   0  0  2  0  0  0  0  0  0  0  0  0
    3.4820   -0.1744   -0.6844 C   0  0  0  0  0  0  0  0  0  0  0  0
    2.9410   -0.1768   -2.1272 C   0  0  0  0  0  0  0  0  0  0  0  0
    1.4740   -0.6228   -2.2215 C   0  0  0  0  0  0  0  0  0  0  0  0
    0.6322   -0.1911   -1.0066 C   0  0  2  0  0  0  0  0  0  0  0  0
    0.2906    1.2912   -1.0810 C   0  0  0  0  0  0  0  0  0  0  0  0
    1.2411    2.1210   -1.0627 O   0  0  0  0  0  0  0  0  0  0  0  0
   -1.0730    1.7859   -1.1618 N   0  0  0  0  0  0  0  0  0  0  0  0
   -2.2446    0.9009   -1.0178 C   0  0  0  0  0  0  0  0  0  0  0  0
   -2.3349    0.2339    0.3451 C   0  0  0  0  0  0  0  0  0  0  0  0
   -3.1434   -0.9157    0.4958 C   0  0  0  0  0  0  0  0  0  0  0  0
   -3.8422   -1.3989   -0.6260 O   0  0  0  0  0  0  0  0  0  0  0  0
   -4.5935   -2.6102   -0.6866 C   0  0  0  0  0  0  0  0  0  0  0  0
   -3.6657   -3.8164   -0.7717 C   0  0  0  0  0  0  0  0  0  0  0  0
   -3.2359   -1.5375    1.7587 C   0  0  0  0  0  0  0  0  0  0  0  0
   -2.5433   -1.0208    2.8541 C   0  0  0  0  0  0  0  0  0  0  0  0
   -1.7633    0.1257    2.7105 C   0  0  0  0  0  0  0  0  0  0  0  0
   -1.6645    0.7557    1.4694 C   0  0  0  0  0  0  0  0  0  0  0  0
   -1.2953    3.2006   -1.5117 C   0  0  0  0  0  0  0  0  0  0  0  0
   -1.2270    4.0937   -0.2647 C   0  0  1  0  0  0  0  0  0  0  0  0
   -1.2367    5.5729   -0.6586 C   0  0  0  0  0  0  0  0  0  0  0  0
   -2.3304    3.8250    0.5603 O   0  0  0  0  0  0  0  0  0  0  0  0
    1.3158   -0.5445    0.3484 C   0  0  0  0  0  0  0  0  0  0  0  0
    4.3526   -2.6589    3.6707 H   0  0  0  0  0  0  0  0  0  0  0  0
    5.4899   -1.2989    3.2994 H   0  0  0  0  0  0  0  0  0  0  0  0
    5.9618   -3.0015    2.9324 H   0  0  0  0  0  0  0  0  0  0  0  0
    4.1674   -3.1660    1.2239 H   0  0  0  0  0  0  0  0  0  0  0  0
    5.3155   -1.8255    0.8633 H   0  0  0  0  0  0  0  0  0  0  0  0
    3.6692   -0.1800    1.9009 H   0  0  0  0  0  0  0  0  0  0  0  0
    2.5884   -1.5568    2.2823 H   0  0  0  0  0  0  0  0  0  0  0  0
    2.6472   -2.0216   -0.2235 H   0  0  0  0  0  0  0  0  0  0  0  0
    3.4686    0.8653   -0.2883 H   0  0  0  0  0  0  0  0  0  0  0  0
    4.5460   -0.4850   -0.7233 H   0  0  0  0  0  0  0  0  0  0  0  0
    3.0526    0.8402   -2.5606 H   0  0  0  0  0  0  0  0  0  0  0  0
    3.5553   -0.8607   -2.7514 H   0  0  0  0  0  0  0  0  0  0  0  0
    1.4458   -1.7330   -2.2933 H   0  0  0  0  0  0  0  0  0  0  0  0
    1.0232   -0.2333   -3.1610 H   0  0  0  0  0  0  0  0  0  0  0  0
   -0.2943   -0.7940   -1.0691 H   0  0  0  0  0  0  0  0  0  0  0  0
   -2.2060    0.1358   -1.8248 H   0  0  0  0  0  0  0  0  0  0  0  0
   -3.1922    1.4624   -1.1730 H   0  0  0  0  0  0  0  0  0  0  0  0
   -5.2186   -2.5861   -1.6033 H   0  0  0  0  0  0  0  0  0  0  0  0
   -5.2820   -2.6932    0.1792 H   0  0  0  0  0  0  0  0  0  0  0  0
   -3.0288   -3.8879    0.1355 H   0  0  0  0  0  0  0  0  0  0  0  0
   -3.0114   -3.7259   -1.6657 H   0  0  0  0  0  0  0  0  0  0  0  0
   -4.2692   -4.7450   -0.8599 H   0  0  0  0  0  0  0  0  0  0  0  0
   -3.8438   -2.4179    1.9111 H   0  0  0  0  0  0  0  0  0  0  0  0
   -2.6187   -1.5070    3.8198 H   0  0  0  0  0  0  0  0  0  0  0  0
   -1.2340    0.5279    3.5643 H   0  0  0  0  0  0  0  0  0  0  0  0
   -1.0501    1.6417    1.3952 H   0  0  0  0  0  0  0  0  0  0  0  0
   -0.5363    3.5217   -2.2597 H   0  0  0  0  0  0  0  0  0  0  0  0
   -2.2827    3.3350   -2.0062 H   0  0  0  0  0  0  0  0  0  0  0  0
   -0.2762    3.8802    0.2774 H   0  0  0  0  0  0  0  0  0  0  0  0
   -1.1718    6.2051    0.2515 H   0  0  0  0  0  0  0  0  0  0  0  0
   -2.1738    5.8246   -1.1996 H   0  0  0  0  0  0  0  0  0  0  0  0
   -0.3659    5.8055   -1.3077 H   0  0  0  0  0  0  0  0  0  0  0  0
   -2.0740    4.0978    1.4788 H   0  0  0  0  0  0  0  0  0  0  0  0
    0.6919   -1.3128    0.8596 H   0  0  0  0  0  0  0  0  0  0  0  0
    1.3133    0.3427    1.0238 H   0  0  0  0  0  0  0  0  0  0  0  0
  1  2  1  0
  2  3  1  0
  3  4  1  0
  4  5  1  0
  5  6  1  0
  6  7  1  0
  7  8  1  0
  8  9  1  0
  9 10  2  0
  9 11  1  0
 11 12  1  0
 12 13  1  0
 13 14  2  0
 14 15  1  0
 15 16  1  0
 16 17  1  0
 14 18  1  0
 18 19  2  0
 19 20  1  0
 20 21  2  0
 11 22  1  0
 22 23  1  0
 23 24  1  0
 23 25  1  0
  8 26  1  0
 26  4  1  0
 21 13  1  0
  1 27  1  0
  1 28  1  0
  1 29  1  0
  2 30  1  0
  2 31  1  0
  3 32  1  0
  3 33  1  0
  4 34  1  6
  5 35  1  0
  5 36  1  0
  6 37  1  0
  6 38  1  0
  7 39  1  0
  7 40  1  0
  8 41  1  6
 12 42  1  0
 12 43  1  0
 16 44  1  0
 16 45  1  0
 17 46  1  0
 17 47  1  0
 17 48  1  0
 18 49  1  0
 19 50  1  0
 20 51  1  0
 21 52  1  0
 22 53  1  0
 22 54  1  0
 23 55  1  1
 24 56  1  0
 24 57  1  0
 24 58  1  0
 25 59  1  0
 26 60  1  0
 26 61  1  0
M  CHG  1   4   1
M  END
$$$$
mol_44
     RDKit          3D

 39 39  0  0  0  0  0  0  0  0999 V2000
   -4.8975    2.2372   -0.1987 C   0  0  0  0  0  0  0  0  0  0  0  0
   -4.0419    0.9864   -0.4475 C   0  0  1  0  0  0  0  0  0  0  0  0
   -2.7556    1.3783   -1.2038 C   0  0  0  0  0  0  0  0  0  0  0  0
   -2.0398    0.1896   -1.6701 N   0  0  0  0  0  0  0  0  0  0  0  0
   -0.7128   -0.1492   -1.2347 C   0  0  0  0  0  0  0  0  0  0  0  0
   -0.1182    0.5863   -0.4022 O   0  0  0  0  0  0  0  0  0  0  0  0
   -0.0366   -1.3480   -1.7805 C   0  0  0  0  0  0  0  0  0  0  0  0
   -0.4790   -1.8527   -2.8485 O   0  0  0  0  0  0  0  0  0  0  0  0
    1.1159   -1.9449   -1.1444 N   0  0  0  0  0  0  0  0  0  0  0  0
    2.0154   -2.7778   -1.9487 C   0  0  0  0  0  0  0  0  0  0  0  0
    1.3503   -1.8348    0.3040 C   0  0  0  0  0  0  0  0  0  0  0  0
    2.3854   -0.7886    0.6603 C   0  0  0  0  0  0  0  0  0  0  0  0
    2.7474   -0.6415    2.0096 C   0  0  0  0  0  0  0  0  0  0  0  0
    3.6937    0.3133    2.3927 C   0  0  0  0  0  0  0  0  0  0  0  0
    4.2902    1.1377    1.4310 C   0  0  0  0  0  0  0  0  0  0  0  0
    5.2343    2.0931    1.8006 O   0  0  0  0  0  0  0  0  0  0  0  0
    3.9347    1.0024    0.0862 C   0  0  0  0  0  0  0  0  0  0  0  0
    2.9889    0.0482   -0.3009 C   0  0  0  0  0  0  0  0  0  0  0  0
   -3.7235    0.2798    0.8851 C   0  0  0  0  0  0  0  0  0  0  0  0
   -4.8920   -0.0003    1.5718 F   0  0  0  0  0  0  0  0  0  0  0  0
   -3.0614   -0.9131    0.6567 F   0  0  0  0  0  0  0  0  0  0  0  0
   -5.8571    1.9622    0.2881 H   0  0  0  0  0  0  0  0  0  0  0  0
   -4.3573    2.9581    0.4522 H   0  0  0  0  0  0  0  0  0  0  0  0
   -5.1397    2.7359   -1.1615 H   0  0  0  0  0  0  0  0  0  0  0  0
   -4.6340    0.2917   -1.0841 H   0  0  0  0  0  0  0  0  0  0  0  0
   -3.0178    1.9901   -2.0942 H   0  0  0  0  0  0  0  0  0  0  0  0
   -2.1132    2.0089   -0.5516 H   0  0  0  0  0  0  0  0  0  0  0  0
   -2.5304   -0.4365   -2.3478 H   0  0  0  0  0  0  0  0  0  0  0  0
    2.8856   -3.1238   -1.3505 H   0  0  0  0  0  0  0  0  0  0  0  0
    2.3997   -2.1913   -2.8098 H   0  0  0  0  0  0  0  0  0  0  0  0
    1.4690   -3.6680   -2.3254 H   0  0  0  0  0  0  0  0  0  0  0  0
    1.6926   -2.8190    0.6928 H   0  0  0  0  0  0  0  0  0  0  0  0
    0.3988   -1.6146    0.8345 H   0  0  0  0  0  0  0  0  0  0  0  0
    2.2946   -1.2694    2.7674 H   0  0  0  0  0  0  0  0  0  0  0  0
    3.9615    0.4118    3.4370 H   0  0  0  0  0  0  0  0  0  0  0  0
    5.5128    2.2158    2.7672 H   0  0  0  0  0  0  0  0  0  0  0  0
    4.3906    1.6399   -0.6607 H   0  0  0  0  0  0  0  0  0  0  0  0
    2.7307   -0.0217   -1.3486 H   0  0  0  0  0  0  0  0  0  0  0  0
   -3.0839    0.9285    1.5215 H   0  0  0  0  0  0  0  0  0  0  0  0
  1  2  1  0
  2  3  1  0
  3  4  1  0
  4  5  1  0
  5  6  2  0
  5  7  1  0
  7  8  2  0
  7  9  1  0
  9 10  1  0
  9 11  1  0
 11 12  1  0
 12 13  2  0
 13 14  1  0
 14 15  2  0
 15 16  1  0
 15 17  1  0
 17 18  2  0
  2 19  1  0
 19 20  1  0
 19 21  1  0
 18 12  1  0
  1 22  1  0
  1 23  1  0
  1 24  1  0
  2 25  1  6
  3 26  1  0
  3 27  1  0
  4 28  1  0
 10 29  1  0
 10 30  1  0
 10 31  1  0
 11 32  1  0
 11 33  1  0
 13 34  1  0
 14 35  1  0
 16 36  1  0
 17 37  1  0
 18 38  1  0
 19 39  1  0
M  END
$$$$
mol_45
     RDKit          3D

 56 58  0  0  0  0  0  0  0  0999 V2000
    6.3669   -1.1713   -0.8865 C   0  0  0  0  0  0  0  0  0  0  0  0
    6.2014    0.2598   -1.4200 C   0  0  0  0  0  0  0  0  0  0  0  0
    6.8167    0.3655   -2.8220 C   0  0  0  0  0  0  0  0  0  0  0  0
    4.7201    0.7070   -1.4610 C   0  0  0  0  0  0  0  0  0  0  0  0
    4.0666    0.8162   -0.0681 C   0  0  1  0  0  0  0  0  0  0  0  0
    2.7874    1.6861   -0.1317 C   0  0  0  0  0  0  0  0  0  0  0  0
    1.7783    1.3184    0.9790 C   0  0  1  0  0  0  0  0  0  0  0  0
    0.7842    0.3662    0.4671 N   0  0  0  0  0  0  0  0  0  0  0  0
   -0.6280    0.6211    0.4760 C   0  0  0  0  0  0  0  0  0  0  0  0
   -1.0781    1.7015    0.9478 O   0  0  0  0  0  0  0  0  0  0  0  0
   -1.5297   -0.3619   -0.0522 N   0  0  0  0  0  0  0  0  0  0  0  0
   -2.9847   -0.1842   -0.0198 C   0  0  1  0  0  0  0  0  0  0  0  0
   -3.6763   -1.2494   -0.8934 C   0  0  0  0  0  0  0  0  0  0  0  0
   -5.1726   -1.0541   -0.9423 C   0  0  0  0  0  0  0  0  0  0  0  0
   -6.0306   -1.9617   -0.2976 C   0  0  0  0  0  0  0  0  0  0  0  0
   -7.4153   -1.7706   -0.3349 C   0  0  0  0  0  0  0  0  0  0  0  0
   -7.9535   -0.6765   -1.0177 C   0  0  0  0  0  0  0  0  0  0  0  0
   -7.1079    0.2281   -1.6653 C   0  0  0  0  0  0  0  0  0  0  0  0
   -5.7226    0.0413   -1.6300 C   0  0  0  0  0  0  0  0  0  0  0  0
   -3.4706   -0.2649    1.4003 C   0  0  0  0  0  0  0  0  0  0  0  0
   -3.2856   -1.3407    2.1950 N   0  0  0  0  0  0  0  0  0  0  0  0
   -3.8797   -0.9779    3.3473 C   0  0  0  0  0  0  0  0  0  0  0  0
   -4.3967    0.2899    3.2111 C   0  0  0  0  0  0  0  0  0  0  0  0
   -4.1275    0.7028    1.9984 O   0  0  0  0  0  0  0  0  0  0  0  0
    2.4962    0.7177    2.1965 C   0  0  0  0  0  0  0  0  0  0  0  0
    3.4427   -0.4379    1.7931 C   0  0  0  0  0  0  0  0  0  0  0  0
    3.7334   -0.4754    0.4043 O   0  0  0  0  0  0  0  0  0  0  0  0
    7.4208   -1.5058   -0.9964 H   0  0  0  0  0  0  0  0  0  0  0  0
    6.1252   -1.2138    0.1954 H   0  0  0  0  0  0  0  0  0  0  0  0
    5.7101   -1.8766   -1.4400 H   0  0  0  0  0  0  0  0  0  0  0  0
    6.7670    0.9486   -0.7536 H   0  0  0  0  0  0  0  0  0  0  0  0
    6.7398    1.4079   -3.1998 H   0  0  0  0  0  0  0  0  0  0  0  0
    7.8935    0.0928   -2.7924 H   0  0  0  0  0  0  0  0  0  0  0  0
    6.2938   -0.3126   -3.5310 H   0  0  0  0  0  0  0  0  0  0  0  0
    4.1282    0.0120   -2.0975 H   0  0  0  0  0  0  0  0  0  0  0  0
    4.6810    1.7099   -1.9428 H   0  0  0  0  0  0  0  0  0  0  0  0
    4.7989    1.3112    0.6150 H   0  0  0  0  0  0  0  0  0  0  0  0
    3.0824    2.7530   -0.0221 H   0  0  0  0  0  0  0  0  0  0  0  0
    2.2905    1.5884   -1.1232 H   0  0  0  0  0  0  0  0  0  0  0  0
    1.2747    2.2534    1.3089 H   0  0  0  0  0  0  0  0  0  0  0  0
    1.1163   -0.5453    0.0788 H   0  0  0  0  0  0  0  0  0  0  0  0
   -1.1231   -1.2194   -0.4912 H   0  0  0  0  0  0  0  0  0  0  0  0
   -3.2284    0.8202   -0.4316 H   0  0  0  0  0  0  0  0  0  0  0  0
   -3.2760   -1.1957   -1.9292 H   0  0  0  0  0  0  0  0  0  0  0  0
   -3.4286   -2.2620   -0.5041 H   0  0  0  0  0  0  0  0  0  0  0  0
   -5.6288   -2.8109    0.2411 H   0  0  0  0  0  0  0  0  0  0  0  0
   -8.0711   -2.4700    0.1672 H   0  0  0  0  0  0  0  0  0  0  0  0
   -9.0255   -0.5300   -1.0453 H   0  0  0  0  0  0  0  0  0  0  0  0
   -7.5260    1.0744   -2.1950 H   0  0  0  0  0  0  0  0  0  0  0  0
   -5.0789    0.7483   -2.1383 H   0  0  0  0  0  0  0  0  0  0  0  0
   -3.9320   -1.6000    4.2307 H   0  0  0  0  0  0  0  0  0  0  0  0
   -4.9320    0.8591    3.9593 H   0  0  0  0  0  0  0  0  0  0  0  0
    1.7511    0.3617    2.9416 H   0  0  0  0  0  0  0  0  0  0  0  0
    3.0945    1.5186    2.6843 H   0  0  0  0  0  0  0  0  0  0  0  0
    2.9590   -1.4005    2.0626 H   0  0  0  0  0  0  0  0  0  0  0  0
    4.3890   -0.3795    2.3750 H   0  0  0  0  0  0  0  0  0  0  0  0
  1  2  1  0
  2  3  1  0
  2  4  1  0
  4  5  1  0
  5  6  1  0
  6  7  1  0
  7  8  1  0
  8  9  1  0
  9 10  2  0
  9 11  1  0
 11 12  1  0
 12 13  1  0
 13 14  1  0
 14 15  2  0
 15 16  1  0
 16 17  2  0
 17 18  1  0
 18 19  2  0
 12 20  1  0
 20 21  2  0
 21 22  1  0
 22 23  2  0
 23 24  1  0
  7 25  1  0
 25 26  1  0
 26 27  1  0
 27  5  1  0
 19 14  1  0
 24 20  1  0
  1 28  1  0
  1 29  1  0
  1 30  1  0
  2 31  1  0
  3 32  1  0
  3 33  1  0
  3 34  1  0
  4 35  1  0
  4 36  1  0
  5 37  1  1
  6 38  1  0
  6 39  1  0
  7 40  1  1
  8 41  1  0
 11 42  1  0
 12 43  1  6
 13 44  1  0
 13 45  1  0
 15 46  1  0
 16 47  1  0
 17 48  1  0
 18 49  1  0
 19 50  1  0
 22 51  1  0
 23 52  1  0
 25 53  1  0
 25 54  1  0
 26 55  1  0
 26 56  1  0
M  END
$$$$
mol_46
     RDKit          3D

 53 54  0  0  0  0  0  0  0  0999 V2000
    6.1180   -0.7773    0.0339 C   0  0  0  0  0  0  0  0  0  0  0  0
    5.4606    0.5925   -0.1925 C   0  0  0  0  0  0  0  0  0  0  0  0
    6.3428    1.4467   -1.1125 C   0  0  0  0  0  0  0  0  0  0  0  0
    4.0413    0.4633   -0.7953 C   0  0  0  0  0  0  0  0  0  0  0  0
    3.0246   -0.2241    0.1430 C   0  0  2  0  0  0  0  0  0  0  0  0
    1.6178   -0.3099   -0.5110 C   0  0  0  0  0  0  0  0  0  0  0  0
    0.5401   -0.3417    0.5758 C   0  0  2  0  0  0  0  0  0  0  0  0
   -0.7887   -0.4077   -0.0379 N   0  0  0  0  0  0  0  0  0  0  0  0
   -1.7217   -1.4729    0.2151 C   0  0  0  0  0  0  0  0  0  0  0  0
   -1.3445   -2.4962    0.8513 O   0  0  0  0  0  0  0  0  0  0  0  0
   -3.1431   -1.3894   -0.3337 C   0  0  1  0  0  0  0  0  0  0  0  0
   -3.0400   -1.6924   -1.8496 C   0  0  0  0  0  0  0  0  0  0  0  0
   -4.0403   -2.4810    0.3394 C   0  0  0  0  0  0  0  0  0  0  0  0
   -5.5069   -2.4522   -0.0145 C   0  0  0  0  0  0  0  0  0  0  0  0
   -6.2685   -3.3318    0.4661 O   0  0  0  0  0  0  0  0  0  0  0  0
   -6.0457   -1.4788   -0.8469 O   0  0  0  0  0  0  0  0  0  0  0  0
   -3.6939    0.0145   -0.0143 C   0  0  0  0  0  0  0  0  0  0  0  0
   -3.7557    0.4409    1.3311 C   0  0  0  0  0  0  0  0  0  0  0  0
   -4.2332    1.7114    1.6616 C   0  0  0  0  0  0  0  0  0  0  0  0
   -4.6567    2.5832    0.6589 C   0  0  0  0  0  0  0  0  0  0  0  0
   -5.1193    3.8160    0.9820 F   0  0  0  0  0  0  0  0  0  0  0  0
   -4.6005    2.1863   -0.6773 C   0  0  0  0  0  0  0  0  0  0  0  0
   -4.1224    0.9171   -1.0164 C   0  0  0  0  0  0  0  0  0  0  0  0
    0.6492    0.9082    1.4708 C   0  0  0  0  0  0  0  0  0  0  0  0
    2.0928    1.4363    1.5321 C   0  0  0  0  0  0  0  0  0  0  0  0
    3.0258    0.3768    1.4374 O   0  0  0  0  0  0  0  0  0  0  0  0
    7.1680   -0.6491    0.3736 H   0  0  0  0  0  0  0  0  0  0  0  0
    6.1172   -1.3736   -0.9037 H   0  0  0  0  0  0  0  0  0  0  0  0
    5.5844   -1.3416    0.8260 H   0  0  0  0  0  0  0  0  0  0  0  0
    5.3962    1.1171    0.7860 H   0  0  0  0  0  0  0  0  0  0  0  0
    5.8970    2.4557   -1.2449 H   0  0  0  0  0  0  0  0  0  0  0  0
    6.4488    0.9672   -2.1095 H   0  0  0  0  0  0  0  0  0  0  0  0
    7.3524    1.5761   -0.6672 H   0  0  0  0  0  0  0  0  0  0  0  0
    3.6662    1.4802   -1.0433 H   0  0  0  0  0  0  0  0  0  0  0  0
    4.0955   -0.1061   -1.7498 H   0  0  0  0  0  0  0  0  0  0  0  0
    3.3537   -1.2755    0.2836 H   0  0  0  0  0  0  0  0  0  0  0  0
    1.5482   -1.2241   -1.1408 H   0  0  0  0  0  0  0  0  0  0  0  0
    1.4378    0.5688   -1.1704 H   0  0  0  0  0  0  0  0  0  0  0  0
    0.7226   -1.2388    1.2087 H   0  0  0  0  0  0  0  0  0  0  0  0
   -1.0754    0.3740   -0.6701 H   0  0  0  0  0  0  0  0  0  0  0  0
   -2.6034   -2.7016   -2.0144 H   0  0  0  0  0  0  0  0  0  0  0  0
   -4.0325   -1.6756   -2.3437 H   0  0  0  0  0  0  0  0  0  0  0  0
   -2.3810   -0.9568   -2.3595 H   0  0  0  0  0  0  0  0  0  0  0  0
   -3.6525   -3.4890    0.0719 H   0  0  0  0  0  0  0  0  0  0  0  0
   -3.9642   -2.4005    1.4453 H   0  0  0  0  0  0  0  0  0  0  0  0
   -3.4200   -0.2081    2.1297 H   0  0  0  0  0  0  0  0  0  0  0  0
   -4.2707    2.0203    2.6984 H   0  0  0  0  0  0  0  0  0  0  0  0
   -4.9274    2.8642   -1.4554 H   0  0  0  0  0  0  0  0  0  0  0  0
   -4.0987    0.6574   -2.0643 H   0  0  0  0  0  0  0  0  0  0  0  0
    0.3020    0.6486    2.4947 H   0  0  0  0  0  0  0  0  0  0  0  0
   -0.0064    1.7231    1.0920 H   0  0  0  0  0  0  0  0  0  0  0  0
    2.2456    1.9600    2.4992 H   0  0  0  0  0  0  0  0  0  0  0  0
    2.2648    2.1899    0.7312 H   0  0  0  0  0  0  0  0  0  0  0  0
  1  2  1  0
  2  3  1  0
  2  4  1  0
  4  5  1  0
  5  6  1  0
  6  7  1  0
  7  8  1  0
  8  9  1  0
  9 10  2  0
 11  9  1  1
 11 12  1  0
 11 13  1  0
 13 14  1  0
 14 15  2  0
 14 16  1  0
 11 17  1  0
 17 18  2  0
 18 19  1  0
 19 20  2  0
 20 21  1  0
 20 22  1  0
 22 23  2  0
  7 24  1  0
 24 25  1  0
 25 26  1  0
 26  5  1  0
 23 17  1  0
  1 27  1  0
  1 28  1  0
  1 29  1  0
  2 30  1  0
  3 31  1  0
  3 32  1  0
  3 33  1  0
  4 34  1  0
  4 35  1  0
  5 36  1  1
  6 37  1  0
  6 38  1  0
  7 39  1  1
  8 40  1  0
 12 41  1  0
 12 42  1  0
 12 43  1  0
 13 44  1  0
 13 45  1  0
 18 46  1  0
 19 47  1  0
 22 48  1  0
 23 49  1  0
 24 50  1  0
 24 51  1  0
 25 52  1  0
 25 53  1  0
M  CHG  1  16  -1
M  END
$$$$
mol_47
     RDKit          3D

 44 44  0  0  0  0  0  0  0  0999 V2000
    5.6384    2.6178    0.5120 C   0  0  0  0  0  0  0  0  0  0  0  0
    4.4372    1.6774    0.4611 C   0  0  0  0  0  0  0  0  0  0  0  0
    4.2577    1.0836   -0.9465 C   0  0  0  0  0  0  0  0  0  0  0  0
    3.0940    0.1192   -1.1371 C   0  0  0  0  0  0  0  0  0  0  0  0
    2.9364   -0.4485   -2.5249 C   0  0  0  0  0  0  0  0  0  0  0  0
    2.2432   -0.2069   -0.1329 C   0  0  0  0  0  0  0  0  0  0  0  0
    1.0853   -1.1242   -0.2258 C   0  0  0  0  0  0  0  0  0  0  0  0
    0.8322   -1.7718   -1.2776 O   0  0  0  0  0  0  0  0  0  0  0  0
    0.2675   -1.2695    0.9002 O   0  0  0  0  0  0  0  0  0  0  0  0
   -0.9453   -2.0230    0.9042 C   0  0  0  0  0  0  0  0  0  0  0  0
   -2.0546   -1.2879    0.1325 C   0  0  1  0  0  0  0  0  0  0  0  0
   -3.3117   -2.0370    0.2285 N   0  0  0  0  0  0  0  0  0  0  0  0
   -4.1285   -2.3455   -0.9102 C   0  0  0  0  0  0  0  0  0  0  0  0
   -5.3976   -3.1123   -0.7285 C   0  0  0  0  0  0  0  0  0  0  0  0
   -3.8059   -1.9428   -2.0606 O   0  0  0  0  0  0  0  0  0  0  0  0
   -2.2517    0.1207    0.6542 C   0  0  0  0  0  0  0  0  0  0  0  0
   -1.9685    1.2243   -0.1712 C   0  0  0  0  0  0  0  0  0  0  0  0
   -2.1369    2.5271    0.3072 C   0  0  0  0  0  0  0  0  0  0  0  0
   -2.5892    2.7421    1.6111 C   0  0  0  0  0  0  0  0  0  0  0  0
   -2.8732    1.6544    2.4401 C   0  0  0  0  0  0  0  0  0  0  0  0
   -2.7056    0.3494    1.9673 C   0  0  0  0  0  0  0  0  0  0  0  0
    5.7435    3.0315    1.5371 H   0  0  0  0  0  0  0  0  0  0  0  0
    5.4996    3.4608   -0.1982 H   0  0  0  0  0  0  0  0  0  0  0  0
    6.5695    2.0697    0.2535 H   0  0  0  0  0  0  0  0  0  0  0  0
    4.6006    0.8600    1.1969 H   0  0  0  0  0  0  0  0  0  0  0  0
    3.5296    2.2532    0.7456 H   0  0  0  0  0  0  0  0  0  0  0  0
    4.1272    1.9221   -1.6653 H   0  0  0  0  0  0  0  0  0  0  0  0
    5.1925    0.5476   -1.2215 H   0  0  0  0  0  0  0  0  0  0  0  0
    3.7114   -0.0483   -3.2131 H   0  0  0  0  0  0  0  0  0  0  0  0
    3.0502   -1.5527   -2.5015 H   0  0  0  0  0  0  0  0  0  0  0  0
    1.9451   -0.1711   -2.9415 H   0  0  0  0  0  0  0  0  0  0  0  0
    2.3747    0.2296    0.8456 H   0  0  0  0  0  0  0  0  0  0  0  0
   -1.2572   -2.1778    1.9588 H   0  0  0  0  0  0  0  0  0  0  0  0
   -0.7705   -3.0267    0.4584 H   0  0  0  0  0  0  0  0  0  0  0  0
   -1.7339   -1.2426   -0.9308 H   0  0  0  0  0  0  0  0  0  0  0  0
   -3.6533   -2.3267    1.1732 H   0  0  0  0  0  0  0  0  0  0  0  0
   -6.1578   -2.4600   -0.2507 H   0  0  0  0  0  0  0  0  0  0  0  0
   -5.7845   -3.4640   -1.7085 H   0  0  0  0  0  0  0  0  0  0  0  0
   -5.2134   -3.9946   -0.0804 H   0  0  0  0  0  0  0  0  0  0  0  0
   -1.6126    1.0785   -1.1836 H   0  0  0  0  0  0  0  0  0  0  0  0
   -1.9151    3.3708   -0.3335 H   0  0  0  0  0  0  0  0  0  0  0  0
   -2.7185    3.7516    1.9795 H   0  0  0  0  0  0  0  0  0  0  0  0
   -3.2224    1.8223    3.4507 H   0  0  0  0  0  0  0  0  0  0  0  0
   -2.9281   -0.4800    2.6261 H   0  0  0  0  0  0  0  0  0  0  0  0
  1  2  1  0
  2  3  1  0
  3  4  1  0
  4  5  1  0
  4  6  2  0
  6  7  1  0
  7  8  2  0
  7  9  1  0
  9 10  1  0
 10 11  1  0
 11 12  1  0
 12 13  1  0
 13 14  1  0
 13 15  2  0
 11 16  1  0
 16 17  2  0
 17 18  1  0
 18 19  2  0
 19 20  1  0
 20 21  2  0
 21 16  1  0
  1 22  1  0
  1 23  1  0
  1 24  1  0
  2 25  1  0
  2 26  1  0
  3 27  1  0
  3 28  1  0
  5 29  1  0
  5 30  1  0
  5 31  1  0
  6 32  1  0
 10 33  1  0
 10 34  1  0
 11 35  1  6
 12 36  1  0
 14 37  1  0
 14 38  1  0
 14 39  1  0
 17 40  1  0
 18 41  1  0
 19 42  1  0
 20 43  1  0
 21 44  1  0
M  END
$$$$
mol_48
     RDKit          3D

 41 41  0  0  0  0  0  0  0  0999 V2000
    6.4963    0.7604   -0.4457 C   0  0  0  0  0  0  0  0  0  0  0  0
    5.3717   -0.0424   -1.0930 C   0  0  0  0  0  0  0  0  0  0  0  0
    4.9721   -1.2390   -0.2183 C   0  0  0  0  0  0  0  0  0  0  0  0
    3.8780   -2.0924   -0.8710 C   0  0  0  0  0  0  0  0  0  0  0  0
    2.2784   -1.2046   -0.9552 S   0  0  0  0  0  0  0  0  0  0  0  0
    1.6944   -1.6953    0.7032 C   0  0  0  0  0  0  0  0  0  0  0  0
    0.3567   -1.0795    0.9639 C   0  0  0  0  0  0  0  0  0  0  0  0
    0.2304   -0.2392    1.8957 O   0  0  0  0  0  0  0  0  0  0  0  0
   -0.7754   -1.4537    0.1648 N   0  0  0  0  0  0  0  0  0  0  0  0
   -2.0890   -0.8212    0.3229 C   0  0  1  0  0  0  0  0  0  0  0  0
   -2.0726    0.5864   -0.3052 C   0  0  0  0  0  0  0  0  0  0  0  0
   -3.3662    1.3304   -0.0582 C   0  0  0  0  0  0  0  0  0  0  0  0
   -4.2824    1.5795   -1.1024 C   0  0  0  0  0  0  0  0  0  0  0  0
   -4.0168    1.1330   -2.3968 O   0  0  0  0  0  0  0  0  0  0  0  0
   -5.4714    2.2750   -0.8357 C   0  0  0  0  0  0  0  0  0  0  0  0
   -5.7524    2.7223    0.4572 C   0  0  0  0  0  0  0  0  0  0  0  0
   -4.8481    2.4802    1.4923 C   0  0  0  0  0  0  0  0  0  0  0  0
   -3.6607    1.7897    1.2378 C   0  0  0  0  0  0  0  0  0  0  0  0
   -3.1503   -1.6774   -0.3164 C   0  0  0  0  0  0  0  0  0  0  0  0
   -4.0882   -2.1476    0.3799 O   0  0  0  0  0  0  0  0  0  0  0  0
   -3.1037   -1.9529   -1.6781 O   0  0  0  0  0  0  0  0  0  0  0  0
    6.1714    1.1519    0.5419 H   0  0  0  0  0  0  0  0  0  0  0  0
    7.3967    0.1241   -0.3104 H   0  0  0  0  0  0  0  0  0  0  0  0
    6.7631    1.6189   -1.0975 H   0  0  0  0  0  0  0  0  0  0  0  0
    5.7143   -0.4020   -2.0877 H   0  0  0  0  0  0  0  0  0  0  0  0
    4.4985    0.6281   -1.2430 H   0  0  0  0  0  0  0  0  0  0  0  0
    5.8646   -1.8828   -0.0582 H   0  0  0  0  0  0  0  0  0  0  0  0
    4.6306   -0.8819    0.7764 H   0  0  0  0  0  0  0  0  0  0  0  0
    3.7617   -3.0420   -0.3066 H   0  0  0  0  0  0  0  0  0  0  0  0
    4.1848   -2.3634   -1.9036 H   0  0  0  0  0  0  0  0  0  0  0  0
    1.6009   -2.8002    0.7606 H   0  0  0  0  0  0  0  0  0  0  0  0
    2.4208   -1.3572    1.4718 H   0  0  0  0  0  0  0  0  0  0  0  0
   -0.6494   -2.2177   -0.5384 H   0  0  0  0  0  0  0  0  0  0  0  0
   -2.3138   -0.7382    1.4100 H   0  0  0  0  0  0  0  0  0  0  0  0
   -1.8559    0.5002   -1.3918 H   0  0  0  0  0  0  0  0  0  0  0  0
   -1.2405    1.1821    0.1282 H   0  0  0  0  0  0  0  0  0  0  0  0
   -4.6634    1.2982   -3.1593 H   0  0  0  0  0  0  0  0  0  0  0  0
   -6.1798    2.4681   -1.6313 H   0  0  0  0  0  0  0  0  0  0  0  0
   -6.6716    3.2578    0.6565 H   0  0  0  0  0  0  0  0  0  0  0  0
   -5.0665    2.8293    2.4933 H   0  0  0  0  0  0  0  0  0  0  0  0
   -2.9672    1.6147    2.0511 H   0  0  0  0  0  0  0  0  0  0  0  0
  1  2  1  0
  2  3  1  0
  3  4  1  0
  4  5  1  0
  5  6  1  0
  6  7  1  0
  7  8  2  0
  7  9  1  0
  9 10  1  0
 10 11  1  0
 11 12  1  0
 12 13  2  0
 13 14  1  0
 13 15  1  0
 15 16  2  0
 16 17  1  0
 17 18  2  0
 10 19  1  0
 19 20  2  0
 19 21  1  0
 18 12  1  0
  1 22  1  0
  1 23  1  0
  1 24  1  0
  2 25  1  0
  2 26  1  0
  3 27  1  0
  3 28  1  0
  4 29  1  0
  4 30  1  0
  6 31  1  0
  6 32  1  0
  9 33  1  0
 10 34  1  1
 11 35  1  0
 11 36  1  0
 14 37  1  0
 15 38  1  0
 16 39  1  0
 17 40  1  0
 18 41  1  0
M  CHG  1  21  -1
M  END
$$$$
mol_49
     RDKit          3D

 37 37  0  0  0  0  0  0  0  0999 V2000
   -3.7254   -3.2262   -0.9301 C   0  0  0  0  0  0  0  0  0  0  0  0
   -2.8226   -2.0625   -1.1786 C   0  0  0  0  0  0  0  0  0  0  0  0
   -3.0591   -1.2839   -2.1419 O   0  0  0  0  0  0  0  0  0  0  0  0
   -1.6940   -1.8380   -0.3223 N   0  0  0  0  0  0  0  0  0  0  0  0
   -0.7874   -0.6992   -0.5065 C   0  0  2  0  0  0  0  0  0  0  0  0
    0.4898   -0.8911    0.3441 C   0  0  0  0  0  0  0  0  0  0  0  0
    1.5686    0.1288    0.0828 C   0  0  0  0  0  0  0  0  0  0  0  0
    1.4258    1.0044   -0.8142 O   0  0  0  0  0  0  0  0  0  0  0  0
    2.7740    0.0846    0.8591 N   0  0  0  0  0  0  0  0  0  0  0  0
    3.9212    0.9557    0.6000 C   0  0  0  0  0  0  0  0  0  0  0  0
    4.9805    0.2323   -0.2413 C   0  0  0  0  0  0  0  0  0  0  0  0
    5.3699   -0.9271    0.4090 F   0  0  0  0  0  0  0  0  0  0  0  0
    6.0888    1.0503   -0.3740 F   0  0  0  0  0  0  0  0  0  0  0  0
    4.4600   -0.1027   -1.6089 C   0  0  0  0  0  0  0  0  0  0  0  0
    4.1493    0.8172   -2.4112 O   0  0  0  0  0  0  0  0  0  0  0  0
    4.3230   -1.4285   -2.0021 O   0  0  0  0  0  0  0  0  0  0  0  0
   -1.5073    0.5870   -0.1468 C   0  0  0  0  0  0  0  0  0  0  0  0
   -2.0717    0.7609    1.1305 C   0  0  0  0  0  0  0  0  0  0  0  0
   -2.7415    1.9448    1.4526 C   0  0  0  0  0  0  0  0  0  0  0  0
   -2.8598    2.9644    0.5034 C   0  0  0  0  0  0  0  0  0  0  0  0
   -3.7011    4.4490    0.9096 Cl  0  0  0  0  0  0  0  0  0  0  0  0
   -2.3101    2.7976   -0.7712 C   0  0  0  0  0  0  0  0  0  0  0  0
   -1.6400    1.6148   -1.0972 C   0  0  0  0  0  0  0  0  0  0  0  0
   -4.1676   -3.1421    0.0845 H   0  0  0  0  0  0  0  0  0  0  0  0
   -3.1433   -4.1688   -0.9984 H   0  0  0  0  0  0  0  0  0  0  0  0
   -4.5450   -3.2536   -1.6793 H   0  0  0  0  0  0  0  0  0  0  0  0
   -1.5120   -2.5260    0.4441 H   0  0  0  0  0  0  0  0  0  0  0  0
   -0.4739   -0.6822   -1.5750 H   0  0  0  0  0  0  0  0  0  0  0  0
    0.9170   -1.8935    0.1248 H   0  0  0  0  0  0  0  0  0  0  0  0
    0.2332   -0.8706    1.4249 H   0  0  0  0  0  0  0  0  0  0  0  0
    2.8802   -0.6672    1.5773 H   0  0  0  0  0  0  0  0  0  0  0  0
    3.6020    1.8956    0.0990 H   0  0  0  0  0  0  0  0  0  0  0  0
    4.3731    1.2452    1.5732 H   0  0  0  0  0  0  0  0  0  0  0  0
   -1.9988   -0.0223    1.8745 H   0  0  0  0  0  0  0  0  0  0  0  0
   -3.1703    2.0671    2.4391 H   0  0  0  0  0  0  0  0  0  0  0  0
   -2.4024    3.5829   -1.5106 H   0  0  0  0  0  0  0  0  0  0  0  0
   -1.2232    1.5028   -2.0903 H   0  0  0  0  0  0  0  0  0  0  0  0
  1  2  1  0
  2  3  2  0
  2  4  1  0
  4  5  1  0
  5  6  1  0
  6  7  1  0
  7  8  2  0
  7  9  1  0
  9 10  1  0
 10 11  1  0
 11 12  1  0
 11 13  1  0
 11 14  1  0
 14 15  2  0
 14 16  1  0
  5 17  1  0
 17 18  2  0
 18 19  1  0
 19 20  2  0
 20 21  1  0
 20 22  1  0
 22 23  2  0
 23 17  1  0
  1 24  1  0
  1 25  1  0
  1 26  1  0
  4 27  1  0
  5 28  1  6
  6 29  1  0
  6 30  1  0
  9 31  1  0
 10 32  1  0
 10 33  1  0
 18 34  1  0
 19 35  1  0
 22 36  1  0
 23 37  1  0
M  CHG  1  16  -1
M  END
$$$$
mol_50
     RDKit          3D

 46 46  0  0  0  0  0  0  0  0999 V2000
    5.0219    0.0828   -0.2684 C   0  0  0  0  0  0  0  0  0  0  0  0
    4.0566    1.2266   -0.6154 C   0  0  1  0  0  0  0  0  0  0  0  0
    2.6365    0.7176   -0.9627 C   0  0  0  0  0  0  0  0  0  0  0  0
    1.8947    0.0260    0.1929 C   0  0  0  0  0  0  0  0  0  0  0  0
    0.5789   -0.4386   -0.2447 N   0  0  0  0  0  0  0  0  0  0  0  0
   -0.3369   -1.0519    0.6752 C   0  0  0  0  0  0  0  0  0  0  0  0
    0.0938   -1.4725    1.7841 O   0  0  0  0  0  0  0  0  0  0  0  0
   -1.7411   -1.1842    0.3519 N   0  0  0  0  0  0  0  0  0  0  0  0
   -2.3550   -0.3708   -0.7106 C   0  0  0  0  0  0  0  0  0  0  0  0
   -2.2268    1.0984   -0.3992 C   0  0  0  0  0  0  0  0  0  0  0  0
   -2.8031    1.6224    0.7700 C   0  0  0  0  0  0  0  0  0  0  0  0
   -2.6727    2.9814    1.0721 C   0  0  0  0  0  0  0  0  0  0  0  0
   -1.9705    3.8267    0.2088 C   0  0  0  0  0  0  0  0  0  0  0  0
   -1.4012    3.3152   -0.9604 C   0  0  0  0  0  0  0  0  0  0  0  0
   -1.5311    1.9574   -1.2676 C   0  0  0  0  0  0  0  0  0  0  0  0
   -2.5846   -2.1422    1.0855 C   0  0  0  0  0  0  0  0  0  0  0  0
   -2.8025   -3.4300    0.2703 C   0  0  1  0  0  0  0  0  0  0  0  0
   -1.4904   -4.1847    0.0508 C   0  0  0  0  0  0  0  0  0  0  0  0
   -3.6971   -4.2710    0.9503 O   0  0  0  0  0  0  0  0  0  0  0  0
    4.0563    2.3224    0.4681 C   0  0  0  0  0  0  0  0  0  0  0  0
    3.8573    1.7868    1.7288 F   0  0  0  0  0  0  0  0  0  0  0  0
    5.2681    2.9904    0.4576 F   0  0  0  0  0  0  0  0  0  0  0  0
    5.0044   -0.6898   -1.0663 H   0  0  0  0  0  0  0  0  0  0  0  0
    6.0589    0.4731   -0.1906 H   0  0  0  0  0  0  0  0  0  0  0  0
    4.7562   -0.3932    0.6981 H   0  0  0  0  0  0  0  0  0  0  0  0
    4.4458    1.6987   -1.5454 H   0  0  0  0  0  0  0  0  0  0  0  0
    2.7134    0.0061   -1.8143 H   0  0  0  0  0  0  0  0  0  0  0  0
    2.0243    1.5775   -1.3145 H   0  0  0  0  0  0  0  0  0  0  0  0
    1.7524    0.7430    1.0277 H   0  0  0  0  0  0  0  0  0  0  0  0
    2.4787   -0.8451    0.5561 H   0  0  0  0  0  0  0  0  0  0  0  0
    0.3014   -0.3191   -1.2434 H   0  0  0  0  0  0  0  0  0  0  0  0
   -1.8936   -0.6252   -1.6882 H   0  0  0  0  0  0  0  0  0  0  0  0
   -3.4366   -0.6082   -0.8124 H   0  0  0  0  0  0  0  0  0  0  0  0
   -3.3474    0.9775    1.4486 H   0  0  0  0  0  0  0  0  0  0  0  0
   -3.1151    3.3789    1.9764 H   0  0  0  0  0  0  0  0  0  0  0  0
   -1.8691    4.8781    0.4449 H   0  0  0  0  0  0  0  0  0  0  0  0
   -0.8590    3.9710   -1.6291 H   0  0  0  0  0  0  0  0  0  0  0  0
   -1.0845    1.5776   -2.1779 H   0  0  0  0  0  0  0  0  0  0  0  0
   -3.5702   -1.6739    1.2995 H   0  0  0  0  0  0  0  0  0  0  0  0
   -2.1460   -2.3935    2.0752 H   0  0  0  0  0  0  0  0  0  0  0  0
   -3.2214   -3.1701   -0.7298 H   0  0  0  0  0  0  0  0  0  0  0  0
   -0.7952   -3.5847   -0.5734 H   0  0  0  0  0  0  0  0  0  0  0  0
   -1.0047   -4.4143    1.0234 H   0  0  0  0  0  0  0  0  0  0  0  0
   -1.6916   -5.1393   -0.4803 H   0  0  0  0  0  0  0  0  0  0  0  0
   -4.6059   -3.8950    0.8129 H   0  0  0  0  0  0  0  0  0  0  0  0
    3.2536    3.0618    0.2612 H   0  0  0  0  0  0  0  0  0  0  0  0
  1  2  1  0
  2  3  1  0
  3  4  1  0
  4  5  1  0
  5  6  1  0
  6  7  2  0
  6  8  1  0
  8  9  1  0
  9 10  1  0
 10 11  2  0
 11 12  1  0
 12 13  2  0
 13 14  1  0
 14 15  2  0
  8 16  1  0
 16 17  1  0
 17 18  1  0
 17 19  1  0
  2 20  1  0
 20 21  1  0
 20 22  1  0
 15 10  1  0
  1 23  1  0
  1 24  1  0
  1 25  1  0
  2 26  1  6
  3 27  1  0
  3 28  1  0
  4 29  1  0
  4 30  1  0
  5 31  1  0
  9 32  1  0
  9 33  1  0
 11 34  1  0
 12 35  1  0
 13 36  1  0
 14 37  1  0
 15 38  1  0
 16 39  1  0
 16 40  1  0
 17 41  1  6
 18 42  1  0
 18 43  1  0
 18 44  1  0
 19 45  1  0
 20 46  1  0
M  END
$$$$
mol_51
     RDKit          3D

 40 40  0  0  0  0  0  0  0  0999 V2000
   -2.0337   -5.4832   -0.0966 C   0  0  0  0  0  0  0  0  0  0  0  0
   -1.5748   -4.1295    0.3414 C   0  0  0  0  0  0  0  0  0  0  0  0
   -0.9465   -4.0171    1.4286 O   0  0  0  0  0  0  0  0  0  0  0  0
   -1.8457   -2.9714   -0.4628 N   0  0  0  0  0  0  0  0  0  0  0  0
   -1.4090   -1.6292   -0.0647 C   0  0  2  0  0  0  0  0  0  0  0  0
   -2.0823   -0.5570   -0.9479 C   0  0  0  0  0  0  0  0  0  0  0  0
   -1.6272    0.8401   -0.5923 C   0  0  0  0  0  0  0  0  0  0  0  0
   -1.9334    1.3902    0.6639 C   0  0  0  0  0  0  0  0  0  0  0  0
   -1.4638    2.6604    1.0117 C   0  0  0  0  0  0  0  0  0  0  0  0
   -0.6917    3.3973    0.1084 C   0  0  0  0  0  0  0  0  0  0  0  0
   -0.2188    4.6556    0.4735 O   0  0  0  0  0  0  0  0  0  0  0  0
   -0.4001    2.8633   -1.1535 C   0  0  0  0  0  0  0  0  0  0  0  0
   -0.8672    1.5930   -1.5036 C   0  0  0  0  0  0  0  0  0  0  0  0
    0.0920   -1.5280   -0.1617 C   0  0  0  0  0  0  0  0  0  0  0  0
    0.6739   -1.8182   -1.2419 O   0  0  0  0  0  0  0  0  0  0  0  0
    0.8528   -1.0461    0.9512 N   0  0  0  0  0  0  0  0  0  0  0  0
    2.1631   -0.7118    0.8093 O   0  0  0  0  0  0  0  0  0  0  0  0
    2.1925    0.6653    0.5135 C   0  0  0  0  0  0  0  0  0  0  0  0
    3.6424    1.1516    0.4665 C   0  0  0  0  0  0  0  0  0  0  0  0
    4.3315    0.4503   -0.5089 F   0  0  0  0  0  0  0  0  0  0  0  0
    4.2410    0.9150    1.6927 F   0  0  0  0  0  0  0  0  0  0  0  0
    3.7120    2.6499    0.1568 C   0  0  0  0  0  0  0  0  0  0  0  0
    5.0296    3.0703    0.1775 F   0  0  0  0  0  0  0  0  0  0  0  0
    3.1780    2.9099   -1.0934 F   0  0  0  0  0  0  0  0  0  0  0  0
   -2.5683   -5.4280   -1.0678 H   0  0  0  0  0  0  0  0  0  0  0  0
   -2.7203   -5.9071    0.6656 H   0  0  0  0  0  0  0  0  0  0  0  0
   -1.1563   -6.1537   -0.2099 H   0  0  0  0  0  0  0  0  0  0  0  0
   -2.4034   -3.0923   -1.3390 H   0  0  0  0  0  0  0  0  0  0  0  0
   -1.7287   -1.4556    0.9863 H   0  0  0  0  0  0  0  0  0  0  0  0
   -3.1853   -0.6163   -0.8227 H   0  0  0  0  0  0  0  0  0  0  0  0
   -1.8637   -0.7740   -2.0173 H   0  0  0  0  0  0  0  0  0  0  0  0
   -2.5260    0.8316    1.3774 H   0  0  0  0  0  0  0  0  0  0  0  0
   -1.6958    3.0702    1.9865 H   0  0  0  0  0  0  0  0  0  0  0  0
    0.3478    5.2113   -0.1567 H   0  0  0  0  0  0  0  0  0  0  0  0
    0.1969    3.4267   -1.8592 H   0  0  0  0  0  0  0  0  0  0  0  0
   -0.6166    1.1893   -2.4766 H   0  0  0  0  0  0  0  0  0  0  0  0
    0.3988   -0.9383    1.8864 H   0  0  0  0  0  0  0  0  0  0  0  0
    1.6426    1.2445    1.2922 H   0  0  0  0  0  0  0  0  0  0  0  0
    1.7198    0.8456   -0.4775 H   0  0  0  0  0  0  0  0  0  0  0  0
    3.1440    3.2252    0.9191 H   0  0  0  0  0  0  0  0  0  0  0  0
  1  2  1  0
  2  3  2  0
  2  4  1  0
  4  5  1  0
  5  6  1  0
  6  7  1  0
  7  8  2  0
  8  9  1  0
  9 10  2  0
 10 11  1  0
 10 12  1  0
 12 13  2  0
  5 14  1  0
 14 15  2  0
 14 16  1  0
 16 17  1  0
 17 18  1  0
 18 19  1  0
 19 20  1  0
 19 21  1  0
 19 22  1  0
 22 23  1  0
 22 24  1  0
 13  7  1  0
  1 25  1  0
  1 26  1  0
  1 27  1  0
  4 28  1  0
  5 29  1  1
  6 30  1  0
  6 31  1  0
  8 32  1  0
  9 33  1  0
 11 34  1  0
 12 35  1  0
 13 36  1  0
 16 37  1  0
 18 38  1  0
 18 39  1  0
 22 40  1  0
M  END
$$$$
mol_52
     RDKit          3D

 48 48  0  0  0  0  0  0  0  0999 V2000
   -4.3035    0.6830    0.4500 C   0  0  0  0  0  0  0  0  0  0  0  0
   -3.0693    0.6207   -0.0581 C   0  0  0  0  0  0  0  0  0  0  0  0
   -2.8009    0.0751   -1.4392 C   0  0  0  0  0  0  0  0  0  0  0  0
   -2.4773   -1.4497   -1.4676 C   0  0  0  0  0  0  0  0  0  0  0  0
   -3.6876   -2.2605   -0.9507 C   0  0  0  0  0  0  0  0  0  0  0  0
   -2.2273   -1.8692   -2.9346 C   0  0  0  0  0  0  0  0  0  0  0  0
   -1.2386   -1.7987   -0.5861 C   0  0  0  0  0  0  0  0  0  0  0  0
    0.0061   -1.0297   -0.9441 C   0  0  0  0  0  0  0  0  0  0  0  0
    0.6408   -1.3230   -1.9933 O   0  0  0  0  0  0  0  0  0  0  0  0
    0.4815    0.0150   -0.0832 N   0  0  0  0  0  0  0  0  0  0  0  0
    1.5788    0.9085   -0.4679 C   0  0  1  0  0  0  0  0  0  0  0  0
    1.4507    2.2623    0.2580 C   0  0  0  0  0  0  0  0  0  0  0  0
    0.1855    2.8441   -0.0016 O   0  0  0  0  0  0  0  0  0  0  0  0
    0.2734    3.7687   -1.0632 C   0  0  0  0  0  0  0  0  0  0  0  0
    2.9479    0.2417   -0.2126 C   0  0  0  0  0  0  0  0  0  0  0  0
    3.1717   -0.1264    1.2372 C   0  0  0  0  0  0  0  0  0  0  0  0
    3.9625    0.6839    2.0756 C   0  0  0  0  0  0  0  0  0  0  0  0
    4.5288    1.8244    1.6057 F   0  0  0  0  0  0  0  0  0  0  0  0
    4.1624    0.3269    3.4133 C   0  0  0  0  0  0  0  0  0  0  0  0
    3.5856   -0.8390    3.9237 C   0  0  0  0  0  0  0  0  0  0  0  0
    3.7823   -1.1811    5.2208 F   0  0  0  0  0  0  0  0  0  0  0  0
    2.8095   -1.6540    3.0961 C   0  0  0  0  0  0  0  0  0  0  0  0
    2.6061   -1.3035    1.7587 C   0  0  0  0  0  0  0  0  0  0  0  0
   -5.1608    0.3327   -0.1170 H   0  0  0  0  0  0  0  0  0  0  0  0
   -4.4608    1.0876    1.4445 H   0  0  0  0  0  0  0  0  0  0  0  0
   -2.2384    0.9887    0.5346 H   0  0  0  0  0  0  0  0  0  0  0  0
   -1.9474    0.6455   -1.8658 H   0  0  0  0  0  0  0  0  0  0  0  0
   -3.6716    0.2908   -2.0986 H   0  0  0  0  0  0  0  0  0  0  0  0
   -3.8697   -2.0677    0.1276 H   0  0  0  0  0  0  0  0  0  0  0  0
   -3.5071   -3.3510   -1.0699 H   0  0  0  0  0  0  0  0  0  0  0  0
   -4.6088   -1.9971   -1.5141 H   0  0  0  0  0  0  0  0  0  0  0  0
   -3.1553   -1.7585   -3.5368 H   0  0  0  0  0  0  0  0  0  0  0  0
   -1.4502   -1.2351   -3.4098 H   0  0  0  0  0  0  0  0  0  0  0  0
   -1.9021   -2.9304   -2.9925 H   0  0  0  0  0  0  0  0  0  0  0  0
   -1.4830   -1.6112    0.4818 H   0  0  0  0  0  0  0  0  0  0  0  0
   -1.0119   -2.8849   -0.6618 H   0  0  0  0  0  0  0  0  0  0  0  0
    0.0095    0.1598    0.8381 H   0  0  0  0  0  0  0  0  0  0  0  0
    1.5071    1.1136   -1.5585 H   0  0  0  0  0  0  0  0  0  0  0  0
    2.3071    2.9271   -0.0096 H   0  0  0  0  0  0  0  0  0  0  0  0
    1.5209    2.0964    1.3538 H   0  0  0  0  0  0  0  0  0  0  0  0
    0.6830    3.2989   -1.9844 H   0  0  0  0  0  0  0  0  0  0  0  0
    0.8877    4.6482   -0.7696 H   0  0  0  0  0  0  0  0  0  0  0  0
   -0.7473    4.1336   -1.2991 H   0  0  0  0  0  0  0  0  0  0  0  0
    3.7506    0.9241   -0.5671 H   0  0  0  0  0  0  0  0  0  0  0  0
    3.0361   -0.6740   -0.8366 H   0  0  0  0  0  0  0  0  0  0  0  0
    4.7654    0.9560    4.0555 H   0  0  0  0  0  0  0  0  0  0  0  0
    2.3670   -2.5602    3.4895 H   0  0  0  0  0  0  0  0  0  0  0  0
    2.0106   -1.9522    1.1289 H   0  0  0  0  0  0  0  0  0  0  0  0
  1  2  2  3
  2  3  1  0
  3  4  1  0
  4  5  1  0
  4  6  1  0
  4  7  1  0
  7  8  1  0
  8  9  2  0
  8 10  1  0
 10 11  1  0
 11 12  1  0
 12 13  1  0
 13 14  1  0
 11 15  1  0
 15 16  1  0
 16 17  2  0
 17 18  1  0
 17 19  1  0
 19 20  2  0
 20 21  1  0
 20 22  1  0
 22 23  2  0
 23 16  1  0
  1 24  1  0
  1 25  1  0
  2 26  1  0
  3 27  1  0
  3 28  1  0
  5 29  1  0
  5 30  1  0
  5 31  1  0
  6 32  1  0
  6 33  1  0
  6 34  1  0
  7 35  1  0
  7 36  1  0
 10 37  1  0
 11 38  1  6
 12 39  1  0
 12 40  1  0
 14 41  1  0
 14 42  1  0
 14 43  1  0
 15 44  1  0
 15 45  1  0
 19 46  1  0
 22 47  1  0
 23 48  1  0
M  END
$$$$
mol_53
     RDKit          3D

 43 43  0  0  0  0  0  0  0  0999 V2000
    4.7738   -2.4357   -1.7603 C   0  0  0  0  0  0  0  0  0  0  0  0
    3.6763   -1.4661   -1.3298 C   0  0  0  0  0  0  0  0  0  0  0  0
    3.3633   -1.6138    0.1690 C   0  0  0  0  0  0  0  0  0  0  0  0
    2.3078   -0.6764    0.7408 C   0  0  0  0  0  0  0  0  0  0  0  0
    2.0310   -0.8240    2.2158 C   0  0  0  0  0  0  0  0  0  0  0  0
    1.6272    0.2126   -0.0237 C   0  0  0  0  0  0  0  0  0  0  0  0
    0.5815    1.1493    0.4545 C   0  0  0  0  0  0  0  0  0  0  0  0
    0.4653    1.4221    1.6788 O   0  0  0  0  0  0  0  0  0  0  0  0
   -0.2937    1.7658   -0.5057 N   0  0  0  0  0  0  0  0  0  0  0  0
   -1.4825    2.5604   -0.1635 C   0  0  2  0  0  0  0  0  0  0  0  0
   -1.0783    3.8789    0.5130 C   0  0  0  0  0  0  0  0  0  0  0  0
   -2.1888    4.7285    0.6046 O   0  0  0  0  0  0  0  0  0  0  0  0
   -2.4783    1.7520    0.6979 C   0  0  0  0  0  0  0  0  0  0  0  0
   -2.7973    0.4142    0.0769 C   0  0  0  0  0  0  0  0  0  0  0  0
   -3.5441    0.3444   -1.1109 C   0  0  0  0  0  0  0  0  0  0  0  0
   -3.8262   -0.8941   -1.6951 C   0  0  0  0  0  0  0  0  0  0  0  0
   -3.3678   -2.0738   -1.1001 C   0  0  0  0  0  0  0  0  0  0  0  0
   -3.6540   -3.3005   -1.6949 O   0  0  0  0  0  0  0  0  0  0  0  0
   -2.6261   -2.0110    0.0871 C   0  0  0  0  0  0  0  0  0  0  0  0
   -2.3445   -0.7742    0.6747 C   0  0  0  0  0  0  0  0  0  0  0  0
    4.9761   -2.3103   -2.8449 H   0  0  0  0  0  0  0  0  0  0  0  0
    4.4562   -3.4845   -1.5776 H   0  0  0  0  0  0  0  0  0  0  0  0
    5.7108   -2.2329   -1.1991 H   0  0  0  0  0  0  0  0  0  0  0  0
    4.0191   -0.4301   -1.5429 H   0  0  0  0  0  0  0  0  0  0  0  0
    2.7647   -1.6829   -1.9281 H   0  0  0  0  0  0  0  0  0  0  0  0
    4.3044   -1.4517    0.7390 H   0  0  0  0  0  0  0  0  0  0  0  0
    3.0322   -2.6587    0.3570 H   0  0  0  0  0  0  0  0  0  0  0  0
    2.6161   -1.6617    2.6521 H   0  0  0  0  0  0  0  0  0  0  0  0
    0.9553   -1.0438    2.3842 H   0  0  0  0  0  0  0  0  0  0  0  0
    2.3237    0.1017    2.7538 H   0  0  0  0  0  0  0  0  0  0  0  0
    1.8093    0.2519   -1.0868 H   0  0  0  0  0  0  0  0  0  0  0  0
   -0.1214    1.5806   -1.5200 H   0  0  0  0  0  0  0  0  0  0  0  0
   -1.9971    2.8288   -1.1139 H   0  0  0  0  0  0  0  0  0  0  0  0
   -0.6716    3.6883    1.5302 H   0  0  0  0  0  0  0  0  0  0  0  0
   -0.2881    4.3723   -0.0965 H   0  0  0  0  0  0  0  0  0  0  0  0
   -1.8656    5.5589    1.0415 H   0  0  0  0  0  0  0  0  0  0  0  0
   -3.4241    2.3254    0.8110 H   0  0  0  0  0  0  0  0  0  0  0  0
   -2.0703    1.6148    1.7221 H   0  0  0  0  0  0  0  0  0  0  0  0
   -3.9069    1.2485   -1.5836 H   0  0  0  0  0  0  0  0  0  0  0  0
   -4.4009   -0.9371   -2.6115 H   0  0  0  0  0  0  0  0  0  0  0  0
   -3.3360   -4.1728   -1.2887 H   0  0  0  0  0  0  0  0  0  0  0  0
   -2.2664   -2.9190    0.5542 H   0  0  0  0  0  0  0  0  0  0  0  0
   -1.7645   -0.7443    1.5887 H   0  0  0  0  0  0  0  0  0  0  0  0
  1  2  1  0
  2  3  1  0
  3  4  1  0
  4  5  1  0
  4  6  2  0
  6  7  1  0
  7  8  2  0
  7  9  1  0
  9 10  1  0
 10 11  1  0
 11 12  1  0
 10 13  1  0
 13 14  1  0
 14 15  2  0
 15 16  1  0
 16 17  2  0
 17 18  1  0
 17 19  1  0
 19 20  2  0
 20 14  1  0
  1 21  1  0
  1 22  1  0
  1 23  1  0
  2 24  1  0
  2 25  1  0
  3 26  1  0
  3 27  1  0
  5 28  1  0
  5 29  1  0
  5 30  1  0
  6 31  1  0
  9 32  1  0
 10 33  1  6
 11 34  1  0
 11 35  1  0
 12 36  1  0
 13 37  1  0
 13 38  1  0
 15 39  1  0
 16 40  1  0
 18 41  1  0
 19 42  1  0
 20 43  1  0
M  END
$$$$
mol_54
     RDKit          3D

 38 38  0  0  0  0  0  0  0  0999 V2000
    4.6533   -1.2354    2.0417 C   0  0  0  0  0  0  0  0  0  0  0  0
    3.8079   -0.4515    1.0419 C   0  0  0  0  0  0  0  0  0  0  0  0
    2.3158   -0.6066    1.3313 C   0  0  0  0  0  0  0  0  0  0  0  0
    1.5851    0.1375    0.3800 O   0  0  0  0  0  0  0  0  0  0  0  0
    0.2018   -0.0007    0.6312 C   0  0  0  0  0  0  0  0  0  0  0  0
   -0.5831    0.8353   -0.3909 C   0  0  1  0  0  0  0  0  0  0  0  0
   -2.1040    0.7344   -0.1617 C   0  0  0  0  0  0  0  0  0  0  0  0
   -2.6325   -0.6553   -0.4210 C   0  0  0  0  0  0  0  0  0  0  0  0
   -2.6704   -1.1660   -1.7296 C   0  0  0  0  0  0  0  0  0  0  0  0
   -3.1576   -2.4541   -1.9697 C   0  0  0  0  0  0  0  0  0  0  0  0
   -3.6133   -3.2403   -0.9083 C   0  0  0  0  0  0  0  0  0  0  0  0
   -3.5850   -2.7387    0.3967 C   0  0  0  0  0  0  0  0  0  0  0  0
   -4.2076   -3.8146    1.8466 Br  0  0  0  0  0  0  0  0  0  0  0  0
   -3.0991   -1.4493    0.6406 C   0  0  0  0  0  0  0  0  0  0  0  0
   -0.1755    2.2401   -0.2851 N   0  0  0  0  0  0  0  0  0  0  0  0
    0.4390    2.9658   -1.3595 C   0  0  0  0  0  0  0  0  0  0  0  0
    0.8381    4.3913   -1.1590 C   0  0  0  0  0  0  0  0  0  0  0  0
    0.6656    2.4069   -2.4666 O   0  0  0  0  0  0  0  0  0  0  0  0
    5.7295   -1.1015    1.8035 H   0  0  0  0  0  0  0  0  0  0  0  0
    4.4098   -2.3179    1.9882 H   0  0  0  0  0  0  0  0  0  0  0  0
    4.4698   -0.8682    3.0740 H   0  0  0  0  0  0  0  0  0  0  0  0
    4.0253   -0.8185    0.0152 H   0  0  0  0  0  0  0  0  0  0  0  0
    4.0848    0.6239    1.0957 H   0  0  0  0  0  0  0  0  0  0  0  0
    2.1122   -0.2314    2.3608 H   0  0  0  0  0  0  0  0  0  0  0  0
    2.0513   -1.6876    1.2695 H   0  0  0  0  0  0  0  0  0  0  0  0
   -0.0506    0.3551    1.6572 H   0  0  0  0  0  0  0  0  0  0  0  0
   -0.0991   -1.0685    0.5308 H   0  0  0  0  0  0  0  0  0  0  0  0
   -0.3496    0.4441   -1.4053 H   0  0  0  0  0  0  0  0  0  0  0  0
   -2.6262    1.4418   -0.8425 H   0  0  0  0  0  0  0  0  0  0  0  0
   -2.3409    1.0561    0.8767 H   0  0  0  0  0  0  0  0  0  0  0  0
   -2.3251   -0.5660   -2.5623 H   0  0  0  0  0  0  0  0  0  0  0  0
   -3.1828   -2.8427   -2.9796 H   0  0  0  0  0  0  0  0  0  0  0  0
   -3.9887   -4.2371   -1.1006 H   0  0  0  0  0  0  0  0  0  0  0  0
   -3.0775   -1.0723    1.6556 H   0  0  0  0  0  0  0  0  0  0  0  0
   -0.3356    2.7361    0.6215 H   0  0  0  0  0  0  0  0  0  0  0  0
   -0.0255    4.9694   -0.7690 H   0  0  0  0  0  0  0  0  0  0  0  0
    1.1685    4.8440   -2.1181 H   0  0  0  0  0  0  0  0  0  0  0  0
    1.6720    4.4421   -0.4284 H   0  0  0  0  0  0  0  0  0  0  0  0
  1  2  1  0
  2  3  1  0
  3  4  1  0
  4  5  1  0
  5  6  1  0
  6  7  1  0
  7  8  1  0
  8  9  2  0
  9 10  1  0
 10 11  2  0
 11 12  1  0
 12 13  1  0
 12 14  2  0
  6 15  1  0
 15 16  1  0
 16 17  1  0
 16 18  2  0
 14  8  1  0
  1 19  1  0
  1 20  1  0
  1 21  1  0
  2 22  1  0
  2 23  1  0
  3 24  1  0
  3 25  1  0
  5 26  1  0
  5 27  1  0
  6 28  1  6
  7 29  1  0
  7 30  1  0
  9 31  1  0
 10 32  1  0
 11 33  1  0
 14 34  1  0
 15 35  1  0
 17 36  1  0
 17 37  1  0
 17 38  1  0
M  END
$$$$
mol_55
     RDKit          3D

 50 50  0  0  0  0  0  0  0  0999 V2000
   -2.9866   -3.4211   -0.1092 C   0  0  0  0  0  0  0  0  0  0  0  0
   -3.7784   -2.1318   -0.3142 C   0  0  0  0  0  0  0  0  0  0  0  0
   -2.9472   -0.9868   -0.1120 O   0  0  0  0  0  0  0  0  0  0  0  0
   -1.9799   -0.4974   -1.0091 C   0  0  0  0  0  0  0  0  0  0  0  0
   -1.1784    0.6010   -0.6178 C   0  0  0  0  0  0  0  0  0  0  0  0
   -1.3442    1.2306    0.7528 C   0  0  0  0  0  0  0  0  0  0  0  0
   -0.0520    1.5645    1.3788 N   0  0  0  0  0  0  0  0  0  0  0  0
    0.1220    2.8999    1.9729 C   0  0  0  0  0  0  0  0  0  0  0  0
    0.6111    3.9137    0.9276 C   0  0  1  0  0  0  0  0  0  0  0  0
    0.6928    5.3177    1.5364 C   0  0  0  0  0  0  0  0  0  0  0  0
    1.8778    3.5302    0.4571 O   0  0  0  0  0  0  0  0  0  0  0  0
    1.0049    0.5846    1.4910 C   0  0  0  0  0  0  0  0  0  0  0  0
    2.1772    0.9579    1.7721 O   0  0  0  0  0  0  0  0  0  0  0  0
    0.7432   -0.8108    1.2722 N   0  0  0  0  0  0  0  0  0  0  0  0
    1.7973   -1.7407    0.8502 C   0  0  2  0  0  0  0  0  0  0  0  0
    2.1781   -1.4392   -0.6186 C   0  0  0  0  0  0  0  0  0  0  0  0
    3.3503   -2.1939   -1.0678 N   0  0  0  0  0  0  0  0  0  0  0  0
    1.3297   -3.1933    1.0563 C   0  0  0  0  0  0  0  0  0  0  0  0
    0.8445   -3.3509    2.3420 F   0  0  0  0  0  0  0  0  0  0  0  0
    0.3267   -3.5120    0.1615 F   0  0  0  0  0  0  0  0  0  0  0  0
    2.3850   -4.0707    0.8866 F   0  0  0  0  0  0  0  0  0  0  0  0
   -0.2613    1.1491   -1.5339 C   0  0  0  0  0  0  0  0  0  0  0  0
   -0.0991    0.5821   -2.7993 C   0  0  0  0  0  0  0  0  0  0  0  0
   -0.8618   -0.5226   -3.1729 C   0  0  0  0  0  0  0  0  0  0  0  0
   -1.8018   -1.0578   -2.2905 C   0  0  0  0  0  0  0  0  0  0  0  0
   -2.1790   -3.5110   -0.8624 H   0  0  0  0  0  0  0  0  0  0  0  0
   -2.5365   -3.4312    0.9082 H   0  0  0  0  0  0  0  0  0  0  0  0
   -3.6660   -4.2958   -0.2133 H   0  0  0  0  0  0  0  0  0  0  0  0
   -4.5948   -2.1033    0.4370 H   0  0  0  0  0  0  0  0  0  0  0  0
   -4.2546   -2.1080   -1.3181 H   0  0  0  0  0  0  0  0  0  0  0  0
   -1.9680    2.1434    0.6319 H   0  0  0  0  0  0  0  0  0  0  0  0
   -1.8949    0.5583    1.4433 H   0  0  0  0  0  0  0  0  0  0  0  0
   -0.8467    3.2448    2.3974 H   0  0  0  0  0  0  0  0  0  0  0  0
    0.8354    2.8551    2.8257 H   0  0  0  0  0  0  0  0  0  0  0  0
   -0.1224    3.9384    0.0876 H   0  0  0  0  0  0  0  0  0  0  0  0
    1.4027    5.3301    2.3924 H   0  0  0  0  0  0  0  0  0  0  0  0
   -0.3101    5.6432    1.8887 H   0  0  0  0  0  0  0  0  0  0  0  0
    1.0446    6.0422    0.7708 H   0  0  0  0  0  0  0  0  0  0  0  0
    2.0156    4.0005   -0.4078 H   0  0  0  0  0  0  0  0  0  0  0  0
   -0.2261   -1.1632    1.4189 H   0  0  0  0  0  0  0  0  0  0  0  0
    2.6880   -1.5832    1.4945 H   0  0  0  0  0  0  0  0  0  0  0  0
    1.3156   -1.6544   -1.2865 H   0  0  0  0  0  0  0  0  0  0  0  0
    2.4010   -0.3545   -0.7157 H   0  0  0  0  0  0  0  0  0  0  0  0
    3.7004   -1.7740   -1.9588 H   0  0  0  0  0  0  0  0  0  0  0  0
    3.0901   -3.1880   -1.2603 H   0  0  0  0  0  0  0  0  0  0  0  0
    4.1162   -2.1492   -0.3543 H   0  0  0  0  0  0  0  0  0  0  0  0
    0.3443    2.0045   -1.2670 H   0  0  0  0  0  0  0  0  0  0  0  0
    0.6218    1.0028   -3.4888 H   0  0  0  0  0  0  0  0  0  0  0  0
   -0.7337   -0.9543   -4.1522 H   0  0  0  0  0  0  0  0  0  0  0  0
   -2.3928   -1.8958   -2.6234 H   0  0  0  0  0  0  0  0  0  0  0  0
  1  2  1  0
  2  3  1  0
  3  4  1  0
  4  5  2  0
  5  6  1  0
  6  7  1  0
  7  8  1  0
  8  9  1  0
  9 10  1  0
  9 11  1  0
  7 12  1  0
 12 13  2  0
 12 14  1  0
 14 15  1  0
 15 16  1  0
 16 17  1  0
 15 18  1  0
 18 19  1  0
 18 20  1  0
 18 21  1  0
  5 22  1  0
 22 23  2  0
 23 24  1  0
 24 25  2  0
 25  4  1  0
  1 26  1  0
  1 27  1  0
  1 28  1  0
  2 29  1  0
  2 30  1  0
  6 31  1  0
  6 32  1  0
  8 33  1  0
  8 34  1  0
  9 35  1  6
 10 36  1  0
 10 37  1  0
 10 38  1  0
 11 39  1  0
 14 40  1  0
 15 41  1  1
 16 42  1  0
 16 43  1  0
 17 44  1  0
 17 45  1  0
 17 46  1  0
 22 47  1  0
 23 48  1  0
 24 49  1  0
 25 50  1  0
M  CHG  1  17   1
M  END
$$$$
mol_56
     RDKit          3D

 37 37  0  0  0  0  0  0  0  0999 V2000
   -1.7593   -1.7569    2.5790 N   0  0  0  0  0  0  0  0  0  0  0  0
   -1.5589   -0.3995    2.1792 C   0  0  0  0  0  0  0  0  0  0  0  0
   -2.0876    0.5266    2.8504 O   0  0  0  0  0  0  0  0  0  0  0  0
   -0.7376   -0.0579    0.9580 C   0  0  1  0  0  0  0  0  0  0  0  0
    0.6901   -0.6252    1.0996 C   0  0  0  0  0  0  0  0  0  0  0  0
    1.6000   -0.0470    0.1086 N   0  0  0  0  0  0  0  0  0  0  0  0
    2.9721   -0.4514    0.0283 C   0  0  0  0  0  0  0  0  0  0  0  0
    3.4174   -1.3339    0.8122 O   0  0  0  0  0  0  0  0  0  0  0  0
    3.8332    0.1441   -0.9520 N   0  0  0  0  0  0  0  0  0  0  0  0
    5.2528   -0.1875   -1.0674 C   0  0  0  0  0  0  0  0  0  0  0  0
    6.0824    0.6033   -0.0562 C   0  0  0  0  0  0  0  0  0  0  0  0
    5.7307    0.2562    1.2353 F   0  0  0  0  0  0  0  0  0  0  0  0
    5.8765    1.9596   -0.2352 F   0  0  0  0  0  0  0  0  0  0  0  0
    7.4235    0.3242   -0.2443 F   0  0  0  0  0  0  0  0  0  0  0  0
   -1.4246   -0.5725   -0.3280 C   0  0  0  0  0  0  0  0  0  0  0  0
   -2.7625    0.0988   -0.5600 C   0  0  0  0  0  0  0  0  0  0  0  0
   -3.9910   -0.5881   -0.4094 C   0  0  0  0  0  0  0  0  0  0  0  0
   -4.0737   -2.2788    0.0764 Cl  0  0  0  0  0  0  0  0  0  0  0  0
   -5.1980    0.0850   -0.6381 C   0  0  0  0  0  0  0  0  0  0  0  0
   -5.1985    1.4284   -1.0174 C   0  0  0  0  0  0  0  0  0  0  0  0
   -3.9918    2.1104   -1.1726 C   0  0  0  0  0  0  0  0  0  0  0  0
   -2.7813    1.4513   -0.9475 C   0  0  0  0  0  0  0  0  0  0  0  0
   -2.3346   -1.9756    3.4223 H   0  0  0  0  0  0  0  0  0  0  0  0
   -1.3507   -2.5469    2.0330 H   0  0  0  0  0  0  0  0  0  0  0  0
   -0.6514    1.0507    0.9003 H   0  0  0  0  0  0  0  0  0  0  0  0
    0.6739   -1.7306    0.9808 H   0  0  0  0  0  0  0  0  0  0  0  0
    1.0818   -0.3920    2.1144 H   0  0  0  0  0  0  0  0  0  0  0  0
    1.2631    0.6953   -0.5456 H   0  0  0  0  0  0  0  0  0  0  0  0
    3.4218    0.8079   -1.6462 H   0  0  0  0  0  0  0  0  0  0  0  0
    5.6020    0.0692   -2.0911 H   0  0  0  0  0  0  0  0  0  0  0  0
    5.4062   -1.2792   -0.9244 H   0  0  0  0  0  0  0  0  0  0  0  0
   -0.7810   -0.3657   -1.2098 H   0  0  0  0  0  0  0  0  0  0  0  0
   -1.5206   -1.6763   -0.2828 H   0  0  0  0  0  0  0  0  0  0  0  0
   -6.1407   -0.4344   -0.5205 H   0  0  0  0  0  0  0  0  0  0  0  0
   -6.1357    1.9409   -1.1921 H   0  0  0  0  0  0  0  0  0  0  0  0
   -3.9936    3.1514   -1.4692 H   0  0  0  0  0  0  0  0  0  0  0  0
   -1.8543    1.9959   -1.0786 H   0  0  0  0  0  0  0  0  0  0  0  0
  1  2  1  0
  2  3  2  0
  2  4  1  0
  4  5  1  0
  5  6  1  0
  6  7  1  0
  7  8  2  0
  7  9  1  0
  9 10  1  0
 10 11  1  0
 11 12  1  0
 11 13  1  0
 11 14  1  0
  4 15  1  0
 15 16  1  0
 16 17  2  0
 17 18  1  0
 17 19  1  0
 19 20  2  0
 20 21  1  0
 21 22  2  0
 22 16  1  0
  1 23  1  0
  1 24  1  0
  4 25  1  6
  5 26  1  0
  5 27  1  0
  6 28  1  0
  9 29  1  0
 10 30  1  0
 10 31  1  0
 15 32  1  0
 15 33  1  0
 19 34  1  0
 20 35  1  0
 21 36  1  0
 22 37  1  0
M  END
$$$$
mol_57
     RDKit          3D

 45 46  0  0  0  0  0  0  0  0999 V2000
   -0.8376   -2.0780    2.5295 C   0  0  0  0  0  0  0  0  0  0  0  0
   -1.1922   -1.0490    1.7571 C   0  0  0  0  0  0  0  0  0  0  0  0
   -1.3609   -1.2166    0.2726 C   0  0  0  0  0  0  0  0  0  0  0  0
   -1.5604    0.0852   -0.3846 N   0  0  0  0  0  0  0  0  0  0  0  0
   -2.8474    0.3605   -1.0375 C   0  0  0  0  0  0  0  0  0  0  0  0
   -3.8823    0.8201   -0.0054 C   0  0  0  0  0  0  0  0  0  0  0  0
   -5.2231    1.1252   -0.6658 C   0  0  0  0  0  0  0  0  0  0  0  0
   -0.5822    1.1448   -0.2648 C   0  0  0  0  0  0  0  0  0  0  0  0
   -0.9550    2.3464   -0.3631 O   0  0  0  0  0  0  0  0  0  0  0  0
    0.8155    0.8562   -0.0461 N   0  0  0  0  0  0  0  0  0  0  0  0
    1.4613   -0.1477   -0.8521 C   0  0  0  0  0  0  0  0  0  0  0  0
    2.2576   -1.1678   -0.2757 C   0  0  0  0  0  0  0  0  0  0  0  0
    2.8052   -2.1593   -1.1085 C   0  0  0  0  0  0  0  0  0  0  0  0
    2.5969   -2.1307   -2.4880 C   0  0  0  0  0  0  0  0  0  0  0  0
    1.8269   -1.1184   -3.0557 C   0  0  0  0  0  0  0  0  0  0  0  0
    1.2591   -0.1363   -2.2446 C   0  0  0  0  0  0  0  0  0  0  0  0
    2.4716   -1.2754    1.1417 N   0  0  0  0  0  0  0  0  0  0  0  0
    2.8443   -0.1664    1.9646 C   0  0  0  0  0  0  0  0  0  0  0  0
    3.9053   -0.2353    2.6410 O   0  0  0  0  0  0  0  0  0  0  0  0
    1.9443    1.0170    2.1448 C   0  0  0  0  0  0  0  0  0  0  0  0
    1.6055    1.7333    0.8357 C   0  0  1  0  0  0  0  0  0  0  0  0
    2.8484    2.2929    0.1243 C   0  0  0  0  0  0  0  0  0  0  0  0
   -0.6627   -3.0613    2.1032 H   0  0  0  0  0  0  0  0  0  0  0  0
   -0.7149   -1.9375    3.5984 H   0  0  0  0  0  0  0  0  0  0  0  0
   -1.3548   -0.0773    2.2146 H   0  0  0  0  0  0  0  0  0  0  0  0
   -0.4827   -1.7325   -0.1612 H   0  0  0  0  0  0  0  0  0  0  0  0
   -2.2347   -1.8818    0.0986 H   0  0  0  0  0  0  0  0  0  0  0  0
   -2.7194    1.1399   -1.8210 H   0  0  0  0  0  0  0  0  0  0  0  0
   -3.2117   -0.5545   -1.5544 H   0  0  0  0  0  0  0  0  0  0  0  0
   -3.5167    1.7341    0.5101 H   0  0  0  0  0  0  0  0  0  0  0  0
   -4.0279    0.0239    0.7564 H   0  0  0  0  0  0  0  0  0  0  0  0
   -5.6213    0.2176   -1.1676 H   0  0  0  0  0  0  0  0  0  0  0  0
   -5.1083    1.9382   -1.4142 H   0  0  0  0  0  0  0  0  0  0  0  0
   -5.9513    1.4529    0.1057 H   0  0  0  0  0  0  0  0  0  0  0  0
    3.4025   -2.9571   -0.6850 H   0  0  0  0  0  0  0  0  0  0  0  0
    3.0313   -2.8970   -3.1169 H   0  0  0  0  0  0  0  0  0  0  0  0
    1.6643   -1.0976   -4.1256 H   0  0  0  0  0  0  0  0  0  0  0  0
    0.6580    0.6397   -2.7016 H   0  0  0  0  0  0  0  0  0  0  0  0
    2.7515   -2.2148    1.5054 H   0  0  0  0  0  0  0  0  0  0  0  0
    2.4222    1.7440    2.8384 H   0  0  0  0  0  0  0  0  0  0  0  0
    1.0069    0.6767    2.6322 H   0  0  0  0  0  0  0  0  0  0  0  0
    0.9954    2.6184    1.1239 H   0  0  0  0  0  0  0  0  0  0  0  0
    2.5423    2.8187   -0.8049 H   0  0  0  0  0  0  0  0  0  0  0  0
    3.5629    1.4864   -0.1431 H   0  0  0  0  0  0  0  0  0  0  0  0
    3.3683    3.0201    0.7836 H   0  0  0  0  0  0  0  0  0  0  0  0
  1  2  2  3
  2  3  1  0
  3  4  1  0
  4  5  1  0
  5  6  1  0
  6  7  1  0
  4  8  1  0
  8  9  2  0
  8 10  1  0
 10 11  1  0
 11 12  2  0
 12 13  1  0
 13 14  2  0
 14 15  1  0
 15 16  2  0
 12 17  1  0
 17 18  1  0
 18 19  2  0
 18 20  1  0
 20 21  1  0
 21 22  1  0
 21 10  1  0
 16 11  1  0
  1 23  1  0
  1 24  1  0
  2 25  1  0
  3 26  1  0
  3 27  1  0
  5 28  1  0
  5 29  1  0
  6 30  1  0
  6 31  1  0
  7 32  1  0
  7 33  1  0
  7 34  1  0
 13 35  1  0
 14 36  1  0
 15 37  1  0
 16 38  1  0
 17 39  1  0
 20 40  1  0
 20 41  1  0
 21 42  1  1
 22 43  1  0
 22 44  1  0
 22 45  1  0
M  END
$$$$
mol_58
     RDKit          3D

 52 52  0  0  0  0  0  0  0  0999 V2000
    7.3363    0.0729   -0.9975 C   0  0  0  0  0  0  0  0  0  0  0  0
    6.8551   -1.2334   -0.3660 C   0  0  0  0  0  0  0  0  0  0  0  0
    5.5915   -1.0367    0.4797 C   0  0  0  0  0  0  0  0  0  0  0  0
    4.4041   -0.6960   -0.3811 C   0  0  0  0  0  0  0  0  0  0  0  0
    3.7433    0.4651   -0.2478 C   0  0  0  0  0  0  0  0  0  0  0  0
    2.5637    0.8138   -1.1208 C   0  0  1  0  0  0  0  0  0  0  0  0
    2.9374    0.7781   -2.4746 O   0  0  0  0  0  0  0  0  0  0  0  0
    1.4243   -0.1352   -0.8666 C   0  0  0  0  0  0  0  0  0  0  0  0
    1.0300   -0.9081   -1.7825 O   0  0  0  0  0  0  0  0  0  0  0  0
    0.7932   -0.1620    0.4219 N   0  0  0  0  0  0  0  0  0  0  0  0
   -0.3417   -1.0328    0.7291 C   0  0  0  0  0  0  0  0  0  0  0  0
   -1.6336   -0.5327    0.0511 C   0  0  1  0  0  0  0  0  0  0  0  0
   -2.8444   -1.4054    0.4481 C   0  0  0  0  0  0  0  0  0  0  0  0
   -4.1099   -0.9860   -0.2607 C   0  0  0  0  0  0  0  0  0  0  0  0
   -4.2401   -1.1668   -1.6484 C   0  0  0  0  0  0  0  0  0  0  0  0
   -5.4097   -0.7708   -2.3043 C   0  0  0  0  0  0  0  0  0  0  0  0
   -6.4586   -0.1959   -1.5812 C   0  0  0  0  0  0  0  0  0  0  0  0
   -7.5913    0.1886   -2.2193 F   0  0  0  0  0  0  0  0  0  0  0  0
   -6.3402   -0.0196   -0.1997 C   0  0  0  0  0  0  0  0  0  0  0  0
   -5.1731   -0.4157    0.4603 C   0  0  0  0  0  0  0  0  0  0  0  0
   -1.8915    0.9498    0.2738 C   0  0  0  0  0  0  0  0  0  0  0  0
   -1.7702    1.7227   -0.7161 O   0  0  0  0  0  0  0  0  0  0  0  0
   -2.3514    1.4940    1.5295 N   0  0  0  0  0  0  0  0  0  0  0  0
   -3.2903    2.6192    1.4948 C   0  0  0  0  0  0  0  0  0  0  0  0
   -1.7777    1.0665    2.8086 C   0  0  0  0  0  0  0  0  0  0  0  0
    7.5333    0.8324   -0.2112 H   0  0  0  0  0  0  0  0  0  0  0  0
    8.2775   -0.1109   -1.5571 H   0  0  0  0  0  0  0  0  0  0  0  0
    6.5772    0.4666   -1.7062 H   0  0  0  0  0  0  0  0  0  0  0  0
    7.6628   -1.6285    0.2874 H   0  0  0  0  0  0  0  0  0  0  0  0
    6.6667   -1.9848   -1.1638 H   0  0  0  0  0  0  0  0  0  0  0  0
    5.7756   -0.2555    1.2503 H   0  0  0  0  0  0  0  0  0  0  0  0
    5.3683   -1.9839    1.0152 H   0  0  0  0  0  0  0  0  0  0  0  0
    4.0852   -1.4162   -1.1300 H   0  0  0  0  0  0  0  0  0  0  0  0
    4.0654    1.1907    0.4941 H   0  0  0  0  0  0  0  0  0  0  0  0
    2.2114    1.8386   -0.8624 H   0  0  0  0  0  0  0  0  0  0  0  0
    3.5111    1.5730   -2.6341 H   0  0  0  0  0  0  0  0  0  0  0  0
    1.1868    0.4294    1.1882 H   0  0  0  0  0  0  0  0  0  0  0  0
   -0.4714   -1.0945    1.8279 H   0  0  0  0  0  0  0  0  0  0  0  0
   -0.1137   -2.0654    0.3850 H   0  0  0  0  0  0  0  0  0  0  0  0
   -1.4815   -0.6803   -1.0412 H   0  0  0  0  0  0  0  0  0  0  0  0
   -2.9917   -1.3764    1.5467 H   0  0  0  0  0  0  0  0  0  0  0  0
   -2.6344   -2.4665    0.1898 H   0  0  0  0  0  0  0  0  0  0  0  0
   -3.4377   -1.6151   -2.2207 H   0  0  0  0  0  0  0  0  0  0  0  0
   -5.5021   -0.9109   -3.3737 H   0  0  0  0  0  0  0  0  0  0  0  0
   -7.1523    0.4251    0.3610 H   0  0  0  0  0  0  0  0  0  0  0  0
   -5.0951   -0.2668    1.5302 H   0  0  0  0  0  0  0  0  0  0  0  0
   -3.6583    2.8780    2.5099 H   0  0  0  0  0  0  0  0  0  0  0  0
   -4.1708    2.3538    0.8725 H   0  0  0  0  0  0  0  0  0  0  0  0
   -2.7928    3.5111    1.0591 H   0  0  0  0  0  0  0  0  0  0  0  0
   -2.1127    0.0428    3.0621 H   0  0  0  0  0  0  0  0  0  0  0  0
   -2.0916    1.7343    3.6380 H   0  0  0  0  0  0  0  0  0  0  0  0
   -0.6702    1.1063    2.7574 H   0  0  0  0  0  0  0  0  0  0  0  0
  1  2  1  0
  2  3  1  0
  3  4  1  0
  4  5  2  0
  5  6  1  0
  6  7  1  0
  6  8  1  0
  8  9  2  0
  8 10  1  0
 10 11  1  0
 11 12  1  0
 12 13  1  0
 13 14  1  0
 14 15  2  0
 15 16  1  0
 16 17  2  0
 17 18  1  0
 17 19  1  0
 19 20  2  0
 12 21  1  0
 21 22  2  0
 21 23  1  0
 23 24  1  0
 23 25  1  0
 20 14  1  0
  1 26  1  0
  1 27  1  0
  1 28  1  0
  2 29  1  0
  2 30  1  0
  3 31  1  0
  3 32  1  0
  4 33  1  0
  5 34  1  0
  6 35  1  1
  7 36  1  0
 10 37  1  0
 11 38  1  0
 11 39  1  0
 12 40  1  6
 13 41  1  0
 13 42  1  0
 15 43  1  0
 16 44  1  0
 19 45  1  0
 20 46  1  0
 24 47  1  0
 24 48  1  0
 24 49  1  0
 25 50  1  0
 25 51  1  0
 25 52  1  0
M  END
$$$$
mol_59
     RDKit          3D

 38 39  0  0  0  0  0  0  0  0999 V2000
    3.0548   -2.3516    1.4380 O   0  0  0  0  0  0  0  0  0  0  0  0
    2.8772   -1.1052    1.5079 C   0  0  0  0  0  0  0  0  0  0  0  0
    1.7738   -0.5622    2.3620 C   0  0  0  0  0  0  0  0  0  0  0  0
    0.6493   -0.1512    1.5148 N   0  0  0  0  0  0  0  0  0  0  0  0
   -0.3110   -1.1447    1.0339 C   0  0  0  0  0  0  0  0  0  0  0  0
   -0.5145   -0.9853   -0.4766 C   0  0  0  0  0  0  0  0  0  0  0  0
   -1.0161    0.4324   -0.8553 C   0  0  1  0  0  0  0  0  0  0  0  0
   -2.5225    0.6565   -0.7538 C   0  0  0  0  0  0  0  0  0  0  0  0
   -3.0534    1.8442   -1.2959 C   0  0  0  0  0  0  0  0  0  0  0  0
   -4.4242    2.1096   -1.2371 C   0  0  0  0  0  0  0  0  0  0  0  0
   -5.2897    1.1920   -0.6419 C   0  0  0  0  0  0  0  0  0  0  0  0
   -4.7865    0.0043   -0.1104 C   0  0  0  0  0  0  0  0  0  0  0  0
   -3.4159   -0.2685   -0.1670 C   0  0  0  0  0  0  0  0  0  0  0  0
   -0.3086    1.4755   -0.0981 N   0  0  0  0  0  0  0  0  0  0  0  0
    0.5315    1.1947    1.0278 C   0  0  0  0  0  0  0  0  0  0  0  0
    1.1755    2.1320    1.5714 O   0  0  0  0  0  0  0  0  0  0  0  0
    3.6944   -0.2104    0.7415 N   0  0  0  0  0  0  0  0  0  0  0  0
    4.6303   -0.6702   -0.2838 C   0  0  0  0  0  0  0  0  0  0  0  0
    3.9011   -1.0160   -1.5854 C   0  0  0  0  0  0  0  0  0  0  0  0
    3.0219   -2.0636   -1.3820 F   0  0  0  0  0  0  0  0  0  0  0  0
    4.8285   -1.3956   -2.5383 F   0  0  0  0  0  0  0  0  0  0  0  0
    2.9178    0.5178   -2.2573 Br  0  0  0  0  0  0  0  0  0  0  0  0
    2.1564    0.2946    2.9564 H   0  0  0  0  0  0  0  0  0  0  0  0
    1.4361   -1.3308    3.0914 H   0  0  0  0  0  0  0  0  0  0  0  0
   -1.2674   -1.0049    1.5766 H   0  0  0  0  0  0  0  0  0  0  0  0
    0.0500   -2.1752    1.2440 H   0  0  0  0  0  0  0  0  0  0  0  0
    0.4686   -1.1525   -0.9682 H   0  0  0  0  0  0  0  0  0  0  0  0
   -1.1920   -1.7718   -0.8702 H   0  0  0  0  0  0  0  0  0  0  0  0
   -0.7526    0.5617   -1.9289 H   0  0  0  0  0  0  0  0  0  0  0  0
   -2.4034    2.5673   -1.7728 H   0  0  0  0  0  0  0  0  0  0  0  0
   -4.8155    3.0276   -1.6564 H   0  0  0  0  0  0  0  0  0  0  0  0
   -6.3510    1.3987   -0.5973 H   0  0  0  0  0  0  0  0  0  0  0  0
   -5.4608   -0.7102    0.3441 H   0  0  0  0  0  0  0  0  0  0  0  0
   -3.0802   -1.2067    0.2451 H   0  0  0  0  0  0  0  0  0  0  0  0
   -0.3908    2.4678   -0.4147 H   0  0  0  0  0  0  0  0  0  0  0  0
    3.6260    0.8164    0.9235 H   0  0  0  0  0  0  0  0  0  0  0  0
    5.1962   -1.5528    0.0852 H   0  0  0  0  0  0  0  0  0  0  0  0
    5.3665    0.1365   -0.4911 H   0  0  0  0  0  0  0  0  0  0  0  0
  1  2  2  0
  2  3  1  0
  3  4  1  0
  4  5  1  0
  5  6  1  0
  6  7  1  0
  7  8  1  0
  8  9  2  0
  9 10  1  0
 10 11  2  0
 11 12  1  0
 12 13  2  0
  7 14  1  0
 14 15  1  0
 15 16  2  0
  2 17  1  0
 17 18  1  0
 18 19  1  0
 19 20  1  0
 19 21  1  0
 19 22  1  0
 15  4  1  0
 13  8  1  0
  3 23  1  0
  3 24  1  0
  5 25  1  0
  5 26  1  0
  6 27  1  0
  6 28  1  0
  7 29  1  6
  9 30  1  0
 10 31  1  0
 11 32  1  0
 12 33  1  0
 13 34  1  0
 14 35  1  0
 17 36  1  0
 18 37  1  0
 18 38  1  0
M  END
$$$$
mol_60
     RDKit          3D

 40 41  0  0  0  0  0  0  0  0999 V2000
   -2.0781   -3.1185    2.1700 C   0  0  0  0  0  0  0  0  0  0  0  0
   -1.5808   -1.7123    2.0720 C   0  0  0  0  0  0  0  0  0  0  0  0
   -2.2172   -0.7968    2.6598 O   0  0  0  0  0  0  0  0  0  0  0  0
   -0.3990   -1.4092    1.3140 N   0  0  0  0  0  0  0  0  0  0  0  0
    0.0420   -0.0344    1.0423 C   0  0  2  0  0  0  0  0  0  0  0  0
   -0.2956    0.3460   -0.4104 C   0  0  0  0  0  0  0  0  0  0  0  0
   -1.7808    0.2841   -0.6656 C   0  0  0  0  0  0  0  0  0  0  0  0
   -2.3252   -0.7372   -1.4621 C   0  0  0  0  0  0  0  0  0  0  0  0
   -3.7050   -0.8030   -1.6780 C   0  0  0  0  0  0  0  0  0  0  0  0
   -4.5540    0.1528   -1.1040 C   0  0  0  0  0  0  0  0  0  0  0  0
   -5.9303    0.0961   -1.3110 O   0  0  0  0  0  0  0  0  0  0  0  0
   -4.0157    1.1744   -0.3152 C   0  0  0  0  0  0  0  0  0  0  0  0
   -2.6365    1.2422   -0.0970 C   0  0  0  0  0  0  0  0  0  0  0  0
    1.5242    0.1084    1.2841 C   0  0  0  0  0  0  0  0  0  0  0  0
    2.2445   -0.9138    1.4549 O   0  0  0  0  0  0  0  0  0  0  0  0
    2.1169    1.4151    1.3136 N   0  0  0  0  0  0  0  0  0  0  0  0
    3.5576    1.6188    1.4368 C   0  0  0  0  0  0  0  0  0  0  0  0
    4.2491    1.1642    0.1923 C   0  0  0  0  0  0  0  0  0  0  0  0
    5.1892    0.1989    0.1564 N   0  0  0  0  0  0  0  0  0  0  0  0
    5.5523    0.0793   -1.1115 N   0  0  0  0  0  0  0  0  0  0  0  0
    4.8165    0.9779   -1.7901 C   0  0  0  0  0  0  0  0  0  0  0  0
    4.9014    1.1728   -3.1986 N   0  0  0  0  0  0  0  0  0  0  0  0
    4.0139    1.6502   -1.0032 O   0  0  0  0  0  0  0  0  0  0  0  0
   -1.4210   -3.8142    1.6077 H   0  0  0  0  0  0  0  0  0  0  0  0
   -2.1013   -3.4310    3.2349 H   0  0  0  0  0  0  0  0  0  0  0  0
   -3.1037   -3.1783    1.7496 H   0  0  0  0  0  0  0  0  0  0  0  0
    0.0756   -2.1889    0.8038 H   0  0  0  0  0  0  0  0  0  0  0  0
   -0.4660    0.6727    1.7335 H   0  0  0  0  0  0  0  0  0  0  0  0
    0.2455   -0.3390   -1.1007 H   0  0  0  0  0  0  0  0  0  0  0  0
    0.0596    1.3764   -0.6309 H   0  0  0  0  0  0  0  0  0  0  0  0
   -1.6846   -1.4889   -1.9062 H   0  0  0  0  0  0  0  0  0  0  0  0
   -4.1131   -1.5979   -2.2892 H   0  0  0  0  0  0  0  0  0  0  0  0
   -6.3510   -0.6316   -1.8771 H   0  0  0  0  0  0  0  0  0  0  0  0
   -4.6669    1.9158    0.1299 H   0  0  0  0  0  0  0  0  0  0  0  0
   -2.2350    2.0388    0.5170 H   0  0  0  0  0  0  0  0  0  0  0  0
    1.4975    2.2555    1.2663 H   0  0  0  0  0  0  0  0  0  0  0  0
    3.7685    2.6991    1.5856 H   0  0  0  0  0  0  0  0  0  0  0  0
    3.9424    1.0654    2.3204 H   0  0  0  0  0  0  0  0  0  0  0  0
    4.3009    1.8872   -3.6662 H   0  0  0  0  0  0  0  0  0  0  0  0
    5.5629    0.6029   -3.7708 H   0  0  0  0  0  0  0  0  0  0  0  0
  1  2  1  0
  2  3  2  0
  2  4  1  0
  4  5  1  0
  5  6  1  0
  6  7  1  0
  7  8  2  0
  8  9  1  0
  9 10  2  0
 10 11  1  0
 10 12  1  0
 12 13  2  0
  5 14  1  0
 14 15  2  0
 14 16  1  0
 16 17  1  0
 17 18  1  0
 18 19  2  0
 19 20  1  0
 20 21  2  0
 21 22  1  0
 21 23  1  0
 13  7  1  0
 23 18  1  0
  1 24  1  0
  1 25  1  0
  1 26  1  0
  4 27  1  0
  5 28  1  1
  6 29  1  0
  6 30  1  0
  8 31  1  0
  9 32  1  0
 11 33  1  0
 12 34  1  0
 13 35  1  0
 16 36  1  0
 17 37  1  0
 17 38  1  0
 22 39  1  0
 22 40  1  0
M  END
$$$$
mol_61
     RDKit          3D

 38 38  0  0  0  0  0  0  0  0999 V2000
    3.3739   -0.3613    1.9445 C   0  0  0  0  0  0  0  0  0  0  0  0
    3.7606    0.5845    0.9039 N   0  0  0  0  0  0  0  0  0  0  0  0
    3.5899    0.3077   -0.4932 C   0  0  0  0  0  0  0  0  0  0  0  0
    4.3776    1.2336   -1.5933 S   0  0  0  0  0  0  0  0  0  0  0  0
    2.7493   -0.7734   -0.9372 N   0  0  0  0  0  0  0  0  0  0  0  0
    3.2653   -1.7396   -1.9044 C   0  0  0  0  0  0  0  0  0  0  0  0
    1.4152   -0.8952   -0.4961 N   0  0  0  0  0  0  0  0  0  0  0  0
    0.5949    0.2350   -0.1582 C   0  0  0  0  0  0  0  0  0  0  0  0
    0.9817    1.4046   -0.4292 O   0  0  0  0  0  0  0  0  0  0  0  0
   -0.7695    0.0100    0.4421 C   0  0  1  0  0  0  0  0  0  0  0  0
   -1.1745    1.1441    1.2808 N   0  0  0  0  0  0  0  0  0  0  0  0
   -1.8940    0.9761    2.5104 C   0  0  0  0  0  0  0  0  0  0  0  0
   -2.3037    2.1732    3.3040 C   0  0  0  0  0  0  0  0  0  0  0  0
   -2.2196   -0.1742    2.9108 O   0  0  0  0  0  0  0  0  0  0  0  0
   -1.7912   -0.2181   -0.6481 C   0  0  0  0  0  0  0  0  0  0  0  0
   -2.4648   -1.4491   -0.7412 C   0  0  0  0  0  0  0  0  0  0  0  0
   -3.4071   -1.6641   -1.7512 C   0  0  0  0  0  0  0  0  0  0  0  0
   -3.6876   -0.6549   -2.6755 C   0  0  0  0  0  0  0  0  0  0  0  0
   -3.0294    0.5752   -2.5896 C   0  0  0  0  0  0  0  0  0  0  0  0
   -3.4177    1.9560   -3.8500 Br  0  0  0  0  0  0  0  0  0  0  0  0
   -2.0851    0.7944   -1.5811 C   0  0  0  0  0  0  0  0  0  0  0  0
    3.7436   -0.0058    2.9287 H   0  0  0  0  0  0  0  0  0  0  0  0
    3.8127   -1.3593    1.7309 H   0  0  0  0  0  0  0  0  0  0  0  0
    2.2698   -0.4411    1.9990 H   0  0  0  0  0  0  0  0  0  0  0  0
    4.2828    1.4440    1.1885 H   0  0  0  0  0  0  0  0  0  0  0  0
    3.0406   -1.3887   -2.9333 H   0  0  0  0  0  0  0  0  0  0  0  0
    4.3639   -1.8568   -1.7896 H   0  0  0  0  0  0  0  0  0  0  0  0
    2.7964   -2.7325   -1.7457 H   0  0  0  0  0  0  0  0  0  0  0  0
    0.9655   -1.8387   -0.5057 H   0  0  0  0  0  0  0  0  0  0  0  0
   -0.6913   -0.8993    1.0789 H   0  0  0  0  0  0  0  0  0  0  0  0
   -1.0447    2.1170    0.9206 H   0  0  0  0  0  0  0  0  0  0  0  0
   -1.4696    2.9042    3.3409 H   0  0  0  0  0  0  0  0  0  0  0  0
   -2.5654    1.8782    4.3421 H   0  0  0  0  0  0  0  0  0  0  0  0
   -3.1857    2.6480    2.8271 H   0  0  0  0  0  0  0  0  0  0  0  0
   -2.2620   -2.2426   -0.0329 H   0  0  0  0  0  0  0  0  0  0  0  0
   -3.9205   -2.6145   -1.8180 H   0  0  0  0  0  0  0  0  0  0  0  0
   -4.4190   -0.8272   -3.4545 H   0  0  0  0  0  0  0  0  0  0  0  0
   -1.5815    1.7508   -1.5251 H   0  0  0  0  0  0  0  0  0  0  0  0
  1  2  1  0
  2  3  1  0
  3  4  2  0
  3  5  1  0
  5  6  1  0
  5  7  1  0
  7  8  1  0
  8  9  2  0
  8 10  1  0
 10 11  1  0
 11 12  1  0
 12 13  1  0
 12 14  2  0
 10 15  1  0
 15 16  2  0
 16 17  1  0
 17 18  2  0
 18 19  1  0
 19 20  1  0
 19 21  2  0
 21 15  1  0
  1 22  1  0
  1 23  1  0
  1 24  1  0
  2 25  1  0
  6 26  1  0
  6 27  1  0
  6 28  1  0
  7 29  1  0
 10 30  1  1
 11 31  1  0
 13 32  1  0
 13 33  1  0
 13 34  1  0
 16 35  1  0
 17 36  1  0
 18 37  1  0
 21 38  1  0
M  END
$$$$
mol_62
     RDKit          3D

 32 32  0  0  0  0  0  0  0  0999 V2000
    2.3286    2.3270    1.4511 O   0  0  0  0  0  0  0  0  0  0  0  0
    1.7585    1.5632    0.6253 C   0  0  0  0  0  0  0  0  0  0  0  0
    0.5188    2.0353   -0.0845 C   0  0  0  0  0  0  0  0  0  0  0  0
   -0.6757    1.9420    0.7782 N   0  0  0  0  0  0  0  0  0  0  0  0
   -1.1482    0.5562    0.9758 C   0  0  0  0  0  0  0  0  0  0  0  0
   -1.8393   -0.0922   -0.2226 C   0  0  0  0  0  0  0  0  0  0  0  0
   -2.2094   -1.4619   -0.1501 C   0  0  0  0  0  0  0  0  0  0  0  0
   -1.9793   -2.2384    0.9890 O   0  0  0  0  0  0  0  0  0  0  0  0
   -2.8326   -2.0804   -1.2405 C   0  0  0  0  0  0  0  0  0  0  0  0
   -3.1148   -1.3603   -2.3994 C   0  0  0  0  0  0  0  0  0  0  0  0
   -2.7806   -0.0110   -2.4778 C   0  0  0  0  0  0  0  0  0  0  0  0
   -2.1542    0.6226   -1.4024 C   0  0  0  0  0  0  0  0  0  0  0  0
    2.2675    0.2436    0.3906 N   0  0  0  0  0  0  0  0  0  0  0  0
    3.4340   -0.2634    1.1136 C   0  0  0  0  0  0  0  0  0  0  0  0
    3.7521   -1.7043    0.7152 C   0  0  0  0  0  0  0  0  0  0  0  0
    2.6758   -2.5243    1.0044 F   0  0  0  0  0  0  0  0  0  0  0  0
    4.0290   -1.7719   -0.6386 F   0  0  0  0  0  0  0  0  0  0  0  0
    4.8557   -2.1450    1.4223 F   0  0  0  0  0  0  0  0  0  0  0  0
    0.3862    1.4593   -1.0240 H   0  0  0  0  0  0  0  0  0  0  0  0
    0.6698    3.0963   -0.3825 H   0  0  0  0  0  0  0  0  0  0  0  0
   -0.4396    2.3403    1.7179 H   0  0  0  0  0  0  0  0  0  0  0  0
   -1.4449    2.5430    0.4051 H   0  0  0  0  0  0  0  0  0  0  0  0
   -0.2925   -0.0796    1.2891 H   0  0  0  0  0  0  0  0  0  0  0  0
   -1.8733    0.5504    1.8196 H   0  0  0  0  0  0  0  0  0  0  0  0
   -1.5752   -1.8764    1.8424 H   0  0  0  0  0  0  0  0  0  0  0  0
   -3.1061   -3.1265   -1.1840 H   0  0  0  0  0  0  0  0  0  0  0  0
   -3.5998   -1.8476   -3.2355 H   0  0  0  0  0  0  0  0  0  0  0  0
   -3.0085    0.5485   -3.3761 H   0  0  0  0  0  0  0  0  0  0  0  0
   -1.9241    1.6701   -1.5189 H   0  0  0  0  0  0  0  0  0  0  0  0
    1.7745   -0.3676   -0.3000 H   0  0  0  0  0  0  0  0  0  0  0  0
    4.3129    0.3795    0.8907 H   0  0  0  0  0  0  0  0  0  0  0  0
    3.2346   -0.2250    2.2065 H   0  0  0  0  0  0  0  0  0  0  0  0
  1  2  2  0
  2  3  1  0
  3  4  1  0
  4  5  1  0
  5  6  1  0
  6  7  2  0
  7  8  1  0
  7  9  1  0
  9 10  2  0
 10 11  1  0
 11 12  2  0
  2 13  1  0
 13 14  1  0
 14 15  1  0
 15 16  1  0
 15 17  1  0
 15 18  1  0
 12  6  1  0
  3 19  1  0
  3 20  1  0
  4 21  1  0
  4 22  1  0
  5 23  1  0
  5 24  1  0
  8 25  1  0
  9 26  1  0
 10 27  1  0
 11 28  1  0
 12 29  1  0
 13 30  1  0
 14 31  1  0
 14 32  1  0
M  CHG  1   4   1
M  END
$$$$
mol_63
     RDKit          3D

 29 29  0  0  0  0  0  0  0  0999 V2000
    5.8587    0.2432   -0.2402 C   0  0  0  0  0  0  0  0  0  0  0  0
    4.4345    0.3120    0.2061 C   0  0  0  0  0  0  0  0  0  0  0  0
    4.1746    0.4984    1.4255 O   0  0  0  0  0  0  0  0  0  0  0  0
    3.3794    0.2072   -0.7622 N   0  0  0  0  0  0  0  0  0  0  0  0
    1.9869    0.0734   -0.4284 C   0  0  0  0  0  0  0  0  0  0  0  0
    1.5678   -0.6654    0.6908 C   0  0  0  0  0  0  0  0  0  0  0  0
    0.2067   -0.8012    0.9794 C   0  0  0  0  0  0  0  0  0  0  0  0
   -0.7629   -0.2065    0.1531 C   0  0  0  0  0  0  0  0  0  0  0  0
   -2.2040   -0.3622    0.4666 C   0  0  0  0  0  0  0  0  0  0  0  0
   -2.5784   -1.3205    1.1970 O   0  0  0  0  0  0  0  0  0  0  0  0
   -3.1755    0.5733   -0.0302 N   0  0  0  0  0  0  0  0  0  0  0  0
   -4.6161    0.3417    0.0721 C   0  0  0  0  0  0  0  0  0  0  0  0
   -5.0924   -0.6220   -1.0145 C   0  0  0  0  0  0  0  0  0  0  0  0
   -4.7506   -0.1319   -2.2623 F   0  0  0  0  0  0  0  0  0  0  0  0
   -6.4674   -0.7506   -0.9437 F   0  0  0  0  0  0  0  0  0  0  0  0
   -4.5179   -1.8679   -0.8417 F   0  0  0  0  0  0  0  0  0  0  0  0
   -0.3407    0.5030   -0.9853 C   0  0  0  0  0  0  0  0  0  0  0  0
    1.0206    0.6358   -1.2735 C   0  0  0  0  0  0  0  0  0  0  0  0
    6.0459   -0.7340   -0.7320 H   0  0  0  0  0  0  0  0  0  0  0  0
    6.0621    1.0610   -0.9625 H   0  0  0  0  0  0  0  0  0  0  0  0
    6.5466    0.3482    0.6257 H   0  0  0  0  0  0  0  0  0  0  0  0
    3.6343    0.3205   -1.7697 H   0  0  0  0  0  0  0  0  0  0  0  0
    2.2871   -1.1607    1.3290 H   0  0  0  0  0  0  0  0  0  0  0  0
   -0.0871   -1.3713    1.8521 H   0  0  0  0  0  0  0  0  0  0  0  0
   -2.8580    1.5017   -0.3882 H   0  0  0  0  0  0  0  0  0  0  0  0
   -4.8722   -0.0536    1.0789 H   0  0  0  0  0  0  0  0  0  0  0  0
   -5.1491    1.3093   -0.0541 H   0  0  0  0  0  0  0  0  0  0  0  0
   -1.0574    0.9360   -1.6702 H   0  0  0  0  0  0  0  0  0  0  0  0
    1.3245    1.1832   -2.1571 H   0  0  0  0  0  0  0  0  0  0  0  0
  1  2  1  0
  2  3  2  0
  2  4  1  0
  4  5  1  0
  5  6  2  0
  6  7  1  0
  7  8  2  0
  8  9  1  0
  9 10  2  0
  9 11  1  0
 11 12  1  0
 12 13  1  0
 13 14  1  0
 13 15  1  0
 13 16  1  0
  8 17  1  0
 17 18  2  0
 18  5  1  0
  1 19  1  0
  1 20  1  0
  1 21  1  0
  4 22  1  0
  6 23  1  0
  7 24  1  0
 11 25  1  0
 12 26  1  0
 12 27  1  0
 17 28  1  0
 18 29  1  0
M  END
$$$$
mol_64
     RDKit          3D

 66 67  0  0  0  0  0  0  0  0999 V2000
    8.6389   -1.5734    0.9626 C   0  0  0  0  0  0  0  0  0  0  0  0
    7.2102   -1.1767    1.1458 C   0  0  0  0  0  0  0  0  0  0  0  0
    6.9118   -0.2917    1.9932 O   0  0  0  0  0  0  0  0  0  0  0  0
    6.1885   -1.8010    0.3561 N   0  0  0  0  0  0  0  0  0  0  0  0
    4.7751   -1.4276    0.4729 C   0  0  2  0  0  0  0  0  0  0  0  0
    3.8875   -2.4415   -0.2787 C   0  0  0  0  0  0  0  0  0  0  0  0
    2.4262   -2.1457   -0.0895 C   0  0  0  0  0  0  0  0  0  0  0  0
    1.7727   -2.7636    0.7931 O   0  0  0  0  0  0  0  0  0  0  0  0
    1.7754   -1.1714   -0.9104 N   0  0  0  0  0  0  0  0  0  0  0  0
    0.4569   -0.7677   -0.6266 N   0  0  0  0  0  0  0  0  0  0  0  0
   -0.3884   -1.0669   -1.7916 C   0  0  0  0  0  0  0  0  0  0  0  0
   -1.8691   -0.7959   -1.4657 C   0  0  0  0  0  0  0  0  0  0  0  0
   -2.0493    0.2202   -0.3168 C   0  0  0  0  0  0  0  0  0  0  0  0
   -3.3115    0.8483   -0.4385 O   0  0  0  0  0  0  0  0  0  0  0  0
   -4.4544    0.2790    0.7434 Si  0  0  0  0  0  4  0  0  0  0  0  0
   -4.5195   -1.5961    0.7719 C   0  0  0  0  0  0  0  0  0  0  0  0
   -3.9393    0.8859    2.4395 C   0  0  0  0  0  0  0  0  0  0  0  0
   -6.1610    0.9783    0.2813 C   0  0  0  0  0  0  0  0  0  0  0  0
   -6.1046    2.5152    0.3134 C   0  0  0  0  0  0  0  0  0  0  0  0
   -7.2233    0.4819    1.2767 C   0  0  0  0  0  0  0  0  0  0  0  0
   -6.5291    0.5117   -1.1379 C   0  0  0  0  0  0  0  0  0  0  0  0
   -0.9572    1.2957   -0.3889 C   0  0  0  0  0  0  0  0  0  0  0  0
    0.4589    0.6792   -0.3288 C   0  0  0  0  0  0  0  0  0  0  0  0
    4.5710   -0.0187   -0.0494 C   0  0  0  0  0  0  0  0  0  0  0  0
    3.9676    0.9568    0.7640 C   0  0  0  0  0  0  0  0  0  0  0  0
    3.7544    2.2496    0.2771 C   0  0  0  0  0  0  0  0  0  0  0  0
    4.1410    2.5813   -1.0251 C   0  0  0  0  0  0  0  0  0  0  0  0
    3.8615    4.2003   -1.6370 Cl  0  0  0  0  0  0  0  0  0  0  0  0
    4.7502    1.6206   -1.8385 C   0  0  0  0  0  0  0  0  0  0  0  0
    4.9666    0.3273   -1.3543 C   0  0  0  0  0  0  0  0  0  0  0  0
    8.7568   -2.6517    1.1977 H   0  0  0  0  0  0  0  0  0  0  0  0
    8.9414   -1.3938   -0.0906 H   0  0  0  0  0  0  0  0  0  0  0  0
    9.2984   -0.9825    1.6324 H   0  0  0  0  0  0  0  0  0  0  0  0
    6.4723   -2.5518   -0.3134 H   0  0  0  0  0  0  0  0  0  0  0  0
    4.4929   -1.4816    1.5493 H   0  0  0  0  0  0  0  0  0  0  0  0
    4.1278   -2.4500   -1.3641 H   0  0  0  0  0  0  0  0  0  0  0  0
    4.0999   -3.4604    0.1128 H   0  0  0  0  0  0  0  0  0  0  0  0
    2.2896   -0.7589   -1.7241 H   0  0  0  0  0  0  0  0  0  0  0  0
   -0.2732   -2.1357   -2.0798 H   0  0  0  0  0  0  0  0  0  0  0  0
   -0.0766   -0.4468   -2.6635 H   0  0  0  0  0  0  0  0  0  0  0  0
   -2.3623   -1.7496   -1.1826 H   0  0  0  0  0  0  0  0  0  0  0  0
   -2.3729   -0.4218   -2.3848 H   0  0  0  0  0  0  0  0  0  0  0  0
   -1.8966   -0.3093    0.6534 H   0  0  0  0  0  0  0  0  0  0  0  0
   -5.3010   -1.9323    1.4820 H   0  0  0  0  0  0  0  0  0  0  0  0
   -3.5430   -2.0045    1.1022 H   0  0  0  0  0  0  0  0  0  0  0  0
   -4.7524   -1.9794   -0.2422 H   0  0  0  0  0  0  0  0  0  0  0  0
   -3.8402    1.9909    2.4266 H   0  0  0  0  0  0  0  0  0  0  0  0
   -2.9630    0.4397    2.7168 H   0  0  0  0  0  0  0  0  0  0  0  0
   -4.6984    0.5879    3.1910 H   0  0  0  0  0  0  0  0  0  0  0  0
   -5.3301    2.8981   -0.3856 H   0  0  0  0  0  0  0  0  0  0  0  0
   -5.8681    2.8834    1.3349 H   0  0  0  0  0  0  0  0  0  0  0  0
   -7.0839    2.9467    0.0129 H   0  0  0  0  0  0  0  0  0  0  0  0
   -6.9720    0.7937    2.3126 H   0  0  0  0  0  0  0  0  0  0  0  0
   -8.2200    0.9048    1.0249 H   0  0  0  0  0  0  0  0  0  0  0  0
   -7.3073   -0.6245    1.2483 H   0  0  0  0  0  0  0  0  0  0  0  0
   -6.5882   -0.5959   -1.1899 H   0  0  0  0  0  0  0  0  0  0  0  0
   -7.5175    0.9215   -1.4378 H   0  0  0  0  0  0  0  0  0  0  0  0
   -5.7748    0.8603   -1.8744 H   0  0  0  0  0  0  0  0  0  0  0  0
   -1.0702    1.8631   -1.3398 H   0  0  0  0  0  0  0  0  0  0  0  0
   -1.0876    2.0160    0.4486 H   0  0  0  0  0  0  0  0  0  0  0  0
    0.8678    0.8230    0.6942 H   0  0  0  0  0  0  0  0  0  0  0  0
    1.1206    1.2344   -1.0329 H   0  0  0  0  0  0  0  0  0  0  0  0
    3.6517    0.7160    1.7718 H   0  0  0  0  0  0  0  0  0  0  0  0
    3.2813    2.9895    0.9100 H   0  0  0  0  0  0  0  0  0  0  0  0
    5.0535    1.8746   -2.8460 H   0  0  0  0  0  0  0  0  0  0  0  0
    5.4372   -0.4064   -1.9966 H   0  0  0  0  0  0  0  0  0  0  0  0
  1  2  1  0
  2  3  2  0
  2  4  1  0
  4  5  1  0
  5  6  1  0
  6  7  1  0
  7  8  2  0
  7  9  1  0
  9 10  1  0
 10 11  1  0
 11 12  1  0
 12 13  1  0
 13 14  1  0
 14 15  1  0
 15 16  1  0
 15 17  1  0
 15 18  1  0
 18 19  1  0
 18 20  1  0
 18 21  1  0
 13 22  1  0
 22 23  1  0
  5 24  1  0
 24 25  2  0
 25 26  1  0
 26 27  2  0
 27 28  1  0
 27 29  1  0
 29 30  2  0
 23 10  1  0
 30 24  1  0
  1 31  1  0
  1 32  1  0
  1 33  1  0
  4 34  1  0
  5 35  1  1
  6 36  1  0
  6 37  1  0
  9 38  1  0
 11 39  1  0
 11 40  1  0
 12 41  1  0
 12 42  1  0
 13 43  1  0
 16 44  1  0
 16 45  1  0
 16 46  1  0
 17 47  1  0
 17 48  1  0
 17 49  1  0
 19 50  1  0
 19 51  1  0
 19 52  1  0
 20 53  1  0
 20 54  1  0
 20 55  1  0
 21 56  1  0
 21 57  1  0
 21 58  1  0
 22 59  1  0
 22 60  1  0
 23 61  1  0
 23 62  1  0
 25 63  1  0
 26 64  1  0
 29 65  1  0
 30 66  1  0
M  END
$$$$
mol_65
     RDKit          3D

 54 55  0  0  0  0  0  0  0  0999 V2000
    8.8024   -0.5533   -2.0592 C   0  0  0  0  0  0  0  0  0  0  0  0
    7.5057   -1.0437   -1.7407 O   0  0  0  0  0  0  0  0  0  0  0  0
    6.7895   -0.6089   -0.6217 C   0  0  0  0  0  0  0  0  0  0  0  0
    7.2938    0.2378    0.1663 O   0  0  0  0  0  0  0  0  0  0  0  0
    5.4964   -1.1709   -0.3596 N   0  0  0  0  0  0  0  0  0  0  0  0
    4.5901   -0.6876    0.6472 C   0  0  0  0  0  0  0  0  0  0  0  0
    3.7418   -1.5937    1.3004 C   0  0  0  0  0  0  0  0  0  0  0  0
    2.8356   -1.1482    2.2671 C   0  0  0  0  0  0  0  0  0  0  0  0
    2.7542    0.2160    2.5865 C   0  0  0  0  0  0  0  0  0  0  0  0
    1.7590    0.7082    3.6070 C   0  0  0  0  0  0  0  0  0  0  0  0
    0.5183    1.3141    2.9376 C   0  0  0  0  0  0  0  0  0  0  0  0
   -0.2899    0.2906    2.2727 N   0  0  0  0  0  0  0  0  0  0  0  0
   -1.4650    0.6323    1.5280 C   0  0  0  0  0  0  0  0  0  0  0  0
   -1.7916    1.8419    1.3842 O   0  0  0  0  0  0  0  0  0  0  0  0
   -2.2684   -0.4049    0.9481 N   0  0  0  0  0  0  0  0  0  0  0  0
   -3.4552   -0.1136    0.1357 C   0  0  2  0  0  0  0  0  0  0  0  0
   -4.3047   -1.3719   -0.0356 C   0  0  0  0  0  0  0  0  0  0  0  0
   -5.5698   -1.1098   -0.8785 C   0  0  0  0  0  0  0  0  0  0  0  0
   -5.4263   -0.0522   -1.9215 N   0  0  1  0  0  0  0  0  0  0  0  0
   -6.0540    1.2193   -1.5040 C   0  0  0  0  0  0  0  0  0  0  0  0
   -4.0301    0.1649   -2.3920 C   0  0  2  0  0  0  0  0  0  0  0  0
   -3.5499   -1.0010   -3.2809 C   0  0  0  0  0  0  0  0  0  0  0  0
   -3.0339    0.4588   -1.2340 C   0  0  0  0  0  0  0  0  0  0  0  0
    3.5825    1.1282    1.9144 C   0  0  0  0  0  0  0  0  0  0  0  0
    4.4898    0.6821    0.9491 C   0  0  0  0  0  0  0  0  0  0  0  0
    9.5091   -0.7821   -1.2337 H   0  0  0  0  0  0  0  0  0  0  0  0
    8.7637    0.5438   -2.2264 H   0  0  0  0  0  0  0  0  0  0  0  0
    9.1605   -1.0457   -2.9861 H   0  0  0  0  0  0  0  0  0  0  0  0
    5.2397   -2.0400   -0.8803 H   0  0  0  0  0  0  0  0  0  0  0  0
    3.7900   -2.6495    1.0652 H   0  0  0  0  0  0  0  0  0  0  0  0
    2.1966   -1.8676    2.7639 H   0  0  0  0  0  0  0  0  0  0  0  0
    1.4532   -0.1149    4.2902 H   0  0  0  0  0  0  0  0  0  0  0  0
    2.2418    1.4863    4.2379 H   0  0  0  0  0  0  0  0  0  0  0  0
   -0.1003    1.8130    3.7149 H   0  0  0  0  0  0  0  0  0  0  0  0
    0.8295    2.0846    2.1979 H   0  0  0  0  0  0  0  0  0  0  0  0
   -0.0301   -0.7183    2.3533 H   0  0  0  0  0  0  0  0  0  0  0  0
   -2.0082   -1.3978    1.1473 H   0  0  0  0  0  0  0  0  0  0  0  0
   -4.0713    0.6313    0.6834 H   0  0  0  0  0  0  0  0  0  0  0  0
   -3.6944   -2.1736   -0.5016 H   0  0  0  0  0  0  0  0  0  0  0  0
   -4.6101   -1.7477    0.9654 H   0  0  0  0  0  0  0  0  0  0  0  0
   -6.4096   -0.8758   -0.1855 H   0  0  0  0  0  0  0  0  0  0  0  0
   -5.8523   -2.0717   -1.3636 H   0  0  0  0  0  0  0  0  0  0  0  0
   -5.9899   -0.3652   -2.7488 H   0  0  0  0  0  0  0  0  0  0  0  0
   -7.1257    1.0611   -1.2516 H   0  0  0  0  0  0  0  0  0  0  0  0
   -6.0260    1.9600   -2.3335 H   0  0  0  0  0  0  0  0  0  0  0  0
   -5.5476    1.6636   -0.6248 H   0  0  0  0  0  0  0  0  0  0  0  0
   -4.0089    1.0527   -3.0667 H   0  0  0  0  0  0  0  0  0  0  0  0
   -2.5347   -0.7875   -3.6786 H   0  0  0  0  0  0  0  0  0  0  0  0
   -3.5170   -1.9595   -2.7282 H   0  0  0  0  0  0  0  0  0  0  0  0
   -4.2317   -1.1228   -4.1489 H   0  0  0  0  0  0  0  0  0  0  0  0
   -2.9307    1.5608   -1.1260 H   0  0  0  0  0  0  0  0  0  0  0  0
   -2.0218    0.0833   -1.5040 H   0  0  0  0  0  0  0  0  0  0  0  0
    3.5169    2.1875    2.1309 H   0  0  0  0  0  0  0  0  0  0  0  0
    5.0890    1.4118    0.4214 H   0  0  0  0  0  0  0  0  0  0  0  0
  1  2  1  0
  2  3  1  0
  3  4  2  0
  3  5  1  0
  5  6  1  0
  6  7  2  0
  7  8  1  0
  8  9  2  0
  9 10  1  0
 10 11  1  0
 11 12  1  0
 12 13  1  0
 13 14  2  0
 13 15  1  0
 15 16  1  0
 16 17  1  0
 17 18  1  0
 18 19  1  0
 19 20  1  0
 19 21  1  0
 21 22  1  0
 21 23  1  0
  9 24  1  0
 24 25  2  0
 25  6  1  0
 23 16  1  0
  1 26  1  0
  1 27  1  0
  1 28  1  0
  5 29  1  0
  7 30  1  0
  8 31  1  0
 10 32  1  0
 10 33  1  0
 11 34  1  0
 11 35  1  0
 12 36  1  0
 15 37  1  0
 16 38  1  1
 17 39  1  0
 17 40  1  0
 18 41  1  0
 18 42  1  0
 19 43  1  6
 20 44  1  0
 20 45  1  0
 20 46  1  0
 21 47  1  6
 22 48  1  0
 22 49  1  0
 22 50  1  0
 23 51  1  0
 23 52  1  0
 24 53  1  0
 25 54  1  0
M  CHG  1  19   1
M  END
$$$$
mol_66
     RDKit          3D

 53 54  0  0  0  0  0  0  0  0999 V2000
   -5.4314    1.7639   -1.6637 C   0  0  0  0  0  0  0  0  0  0  0  0
   -4.8289    0.4824   -1.0582 C   0  0  1  0  0  0  0  0  0  0  0  0
   -3.3466    0.7302   -0.7079 C   0  0  0  0  0  0  0  0  0  0  0  0
   -2.6677   -0.5687   -0.2276 C   0  0  1  0  0  0  0  0  0  0  0  0
   -1.5179   -0.2348    0.6197 N   0  0  0  0  0  0  0  0  0  0  0  0
   -0.1638   -0.5657    0.2799 C   0  0  0  0  0  0  0  0  0  0  0  0
    0.0914   -1.1747   -0.7948 O   0  0  0  0  0  0  0  0  0  0  0  0
    0.8997   -0.1944    1.1687 N   0  0  0  0  0  0  0  0  0  0  0  0
    2.3157   -0.4331    0.8670 C   0  0  2  0  0  0  0  0  0  0  0  0
    3.0154   -0.9927    2.1202 C   0  0  0  0  0  0  0  0  0  0  0  0
    2.4235   -2.2025    2.5125 O   0  0  0  0  0  0  0  0  0  0  0  0
    2.9714    0.8863    0.3869 C   0  0  2  0  0  0  0  0  0  0  0  0
    2.2737    1.3968   -0.7219 O   0  0  0  0  0  0  0  0  0  0  0  0
    4.4184    0.6823   -0.0104 C   0  0  0  0  0  0  0  0  0  0  0  0
    4.7498   -0.1100   -1.1225 C   0  0  0  0  0  0  0  0  0  0  0  0
    6.0861   -0.3012   -1.4845 C   0  0  0  0  0  0  0  0  0  0  0  0
    7.1192    0.2981   -0.7441 C   0  0  0  0  0  0  0  0  0  0  0  0
    8.4944    0.0982   -1.1191 N   0  0  0  0  0  0  0  0  0  0  0  0
    9.4164    0.6305   -0.4666 O   0  0  0  0  0  0  0  0  0  0  0  0
    8.8167   -0.6847   -2.2041 O   0  0  0  0  0  0  0  0  0  0  0  0
    6.7859    1.0951    0.3657 C   0  0  0  0  0  0  0  0  0  0  0  0
    5.4494    1.2864    0.7274 C   0  0  0  0  0  0  0  0  0  0  0  0
   -3.6424   -1.4854    0.5427 C   0  0  0  0  0  0  0  0  0  0  0  0
   -4.7959   -0.6828    1.1602 C   0  0  0  0  0  0  0  0  0  0  0  0
   -5.6151    0.0190    0.1317 N   0  0  2  0  0  0  0  0  0  0  0  0
   -6.7424   -0.8373   -0.2907 C   0  0  0  0  0  0  0  0  0  0  0  0
   -6.4856    1.5989   -1.9656 H   0  0  0  0  0  0  0  0  0  0  0  0
   -4.8627    2.0641   -2.5697 H   0  0  0  0  0  0  0  0  0  0  0  0
   -5.3963    2.5973   -0.9297 H   0  0  0  0  0  0  0  0  0  0  0  0
   -4.8432   -0.2950   -1.8584 H   0  0  0  0  0  0  0  0  0  0  0  0
   -2.7980    1.1143   -1.5962 H   0  0  0  0  0  0  0  0  0  0  0  0
   -3.2909    1.5106    0.0840 H   0  0  0  0  0  0  0  0  0  0  0  0
   -2.3308   -1.1281   -1.1283 H   0  0  0  0  0  0  0  0  0  0  0  0
   -1.6950    0.2690    1.5184 H   0  0  0  0  0  0  0  0  0  0  0  0
    0.6623    0.3738    2.0136 H   0  0  0  0  0  0  0  0  0  0  0  0
    2.4073   -1.1982    0.0651 H   0  0  0  0  0  0  0  0  0  0  0  0
    2.9822   -0.2507    2.9515 H   0  0  0  0  0  0  0  0  0  0  0  0
    4.0837   -1.1953    1.8960 H   0  0  0  0  0  0  0  0  0  0  0  0
    1.6365   -1.9701    3.0711 H   0  0  0  0  0  0  0  0  0  0  0  0
    2.9220    1.6235    1.2247 H   0  0  0  0  0  0  0  0  0  0  0  0
    1.5107    1.9271   -0.3720 H   0  0  0  0  0  0  0  0  0  0  0  0
    3.9722   -0.5784   -1.7128 H   0  0  0  0  0  0  0  0  0  0  0  0
    6.3099   -0.9176   -2.3454 H   0  0  0  0  0  0  0  0  0  0  0  0
    7.5590    1.5707    0.9555 H   0  0  0  0  0  0  0  0  0  0  0  0
    5.2215    1.9019    1.5887 H   0  0  0  0  0  0  0  0  0  0  0  0
   -4.0646   -2.2446   -0.1510 H   0  0  0  0  0  0  0  0  0  0  0  0
   -3.1055   -2.0418    1.3422 H   0  0  0  0  0  0  0  0  0  0  0  0
   -4.3645    0.0625    1.8668 H   0  0  0  0  0  0  0  0  0  0  0  0
   -5.4179   -1.3627    1.7854 H   0  0  0  0  0  0  0  0  0  0  0  0
   -6.0351    0.8527    0.6090 H   0  0  0  0  0  0  0  0  0  0  0  0
   -7.3799   -0.3168   -1.0361 H   0  0  0  0  0  0  0  0  0  0  0  0
   -6.3778   -1.7872   -0.7393 H   0  0  0  0  0  0  0  0  0  0  0  0
   -7.3944   -1.0808    0.5772 H   0  0  0  0  0  0  0  0  0  0  0  0
  1  2  1  0
  2  3  1  0
  3  4  1  0
  4  5  1  0
  5  6  1  0
  6  7  2  0
  6  8  1  0
  8  9  1  0
  9 10  1  0
 10 11  1  0
  9 12  1  0
 12 13  1  0
 12 14  1  0
 14 15  2  0
 15 16  1  0
 16 17  2  0
 17 18  1  0
 18 19  2  0
 18 20  1  0
 17 21  1  0
 21 22  2  0
  4 23  1  0
 23 24  1  0
 24 25  1  0
 25 26  1  0
 25  2  1  0
 22 14  1  0
  1 27  1  0
  1 28  1  0
  1 29  1  0
  2 30  1  6
  3 31  1  0
  3 32  1  0
  4 33  1  6
  5 34  1  0
  8 35  1  0
  9 36  1  6
 10 37  1  0
 10 38  1  0
 11 39  1  0
 12 40  1  1
 13 41  1  0
 15 42  1  0
 16 43  1  0
 21 44  1  0
 22 45  1  0
 23 46  1  0
 23 47  1  0
 24 48  1  0
 24 49  1  0
 25 50  1  1
 26 51  1  0
 26 52  1  0
 26 53  1  0
M  CHG  3  18   1  20  -1  25   1
M  END
$$$$
mol_67
     RDKit          3D

 48 48  0  0  0  0  0  0  0  0999 V2000
    4.3702    2.0029    1.2214 C   0  0  0  0  0  0  0  0  0  0  0  0
    5.0574    0.8983    0.4195 C   0  0  0  0  0  0  0  0  0  0  0  0
    4.9180   -0.4761    1.0846 C   0  0  0  0  0  0  0  0  0  0  0  0
    3.1856   -1.0664    1.0637 S   0  0  0  0  0  0  0  0  0  0  0  0
    3.2741   -1.8725   -0.5713 C   0  0  0  0  0  0  0  0  0  0  0  0
    1.8991   -2.2688   -1.0048 C   0  0  0  0  0  0  0  0  0  0  0  0
    1.6172   -3.4909   -1.1335 O   0  0  0  0  0  0  0  0  0  0  0  0
    0.9180   -1.2578   -1.2818 N   0  0  0  0  0  0  0  0  0  0  0  0
   -0.4609   -1.5646   -1.6755 C   0  0  0  0  0  0  0  0  0  0  0  0
   -1.5216   -0.8111   -0.8087 C   0  0  2  0  0  0  0  0  0  0  0  0
   -2.9181   -1.3167   -1.2575 C   0  0  0  0  0  0  0  0  0  0  0  0
   -1.4250    0.7248   -1.1096 C   0  0  0  0  0  0  0  0  0  0  0  0
   -2.4913    1.5678   -0.4417 C   0  0  0  0  0  0  0  0  0  0  0  0
   -3.6985    1.8463   -1.1073 C   0  0  0  0  0  0  0  0  0  0  0  0
   -4.6731    2.6432   -0.4993 C   0  0  0  0  0  0  0  0  0  0  0  0
   -4.4459    3.1821    0.7694 C   0  0  0  0  0  0  0  0  0  0  0  0
   -3.2404    2.9310    1.4292 C   0  0  0  0  0  0  0  0  0  0  0  0
   -2.2630    2.1346    0.8249 C   0  0  0  0  0  0  0  0  0  0  0  0
   -1.3278   -1.0815    0.7284 C   0  0  1  0  0  0  0  0  0  0  0  0
   -1.3162   -2.5701    1.1166 C   0  0  0  0  0  0  0  0  0  0  0  0
   -0.1397   -0.4824    1.1820 O   0  0  0  0  0  0  0  0  0  0  0  0
    4.7800    2.0448    2.2529 H   0  0  0  0  0  0  0  0  0  0  0  0
    3.2744    1.8300    1.2676 H   0  0  0  0  0  0  0  0  0  0  0  0
    4.5490    2.9823    0.7299 H   0  0  0  0  0  0  0  0  0  0  0  0
    4.6373    0.8733   -0.6080 H   0  0  0  0  0  0  0  0  0  0  0  0
    6.1381    1.1439    0.3364 H   0  0  0  0  0  0  0  0  0  0  0  0
    5.5793   -1.2066    0.5714 H   0  0  0  0  0  0  0  0  0  0  0  0
    5.2565   -0.4140    2.1407 H   0  0  0  0  0  0  0  0  0  0  0  0
    3.9259   -2.7693   -0.4969 H   0  0  0  0  0  0  0  0  0  0  0  0
    3.7026   -1.1829   -1.3273 H   0  0  0  0  0  0  0  0  0  0  0  0
    1.2424   -0.2663   -1.3158 H   0  0  0  0  0  0  0  0  0  0  0  0
   -0.5865   -1.2893   -2.7454 H   0  0  0  0  0  0  0  0  0  0  0  0
   -0.6426   -2.6592   -1.6236 H   0  0  0  0  0  0  0  0  0  0  0  0
   -2.9759   -2.4250   -1.2455 H   0  0  0  0  0  0  0  0  0  0  0  0
   -3.7195   -0.9304   -0.5927 H   0  0  0  0  0  0  0  0  0  0  0  0
   -3.1359   -0.9915   -2.2977 H   0  0  0  0  0  0  0  0  0  0  0  0
   -0.4341    1.1207   -0.8049 H   0  0  0  0  0  0  0  0  0  0  0  0
   -1.4787    0.8918   -2.2086 H   0  0  0  0  0  0  0  0  0  0  0  0
   -3.8865    1.4437   -2.0947 H   0  0  0  0  0  0  0  0  0  0  0  0
   -5.6036    2.8460   -1.0137 H   0  0  0  0  0  0  0  0  0  0  0  0
   -5.2009    3.7999    1.2382 H   0  0  0  0  0  0  0  0  0  0  0  0
   -3.0610    3.3572    2.4078 H   0  0  0  0  0  0  0  0  0  0  0  0
   -1.3298    1.9608    1.3447 H   0  0  0  0  0  0  0  0  0  0  0  0
   -2.1897   -0.6221    1.2667 H   0  0  0  0  0  0  0  0  0  0  0  0
   -2.2547   -3.0750    0.8125 H   0  0  0  0  0  0  0  0  0  0  0  0
   -1.2344   -2.6626    2.2204 H   0  0  0  0  0  0  0  0  0  0  0  0
   -0.4481   -3.0955    0.6711 H   0  0  0  0  0  0  0  0  0  0  0  0
   -0.2216   -0.3765    2.1660 H   0  0  0  0  0  0  0  0  0  0  0  0
  1  2  1  0
  2  3  1  0
  3  4  1  0
  4  5  1  0
  5  6  1  0
  6  7  2  0
  6  8  1  0
  8  9  1  0
 10  9  1  6
 10 11  1  0
 10 12  1  0
 12 13  1  0
 13 14  2  0
 14 15  1  0
 15 16  2  0
 16 17  1  0
 17 18  2  0
 10 19  1  0
 19 20  1  0
 19 21  1  0
 18 13  1  0
  1 22  1  0
  1 23  1  0
  1 24  1  0
  2 25  1  0
  2 26  1  0
  3 27  1  0
  3 28  1  0
  5 29  1  0
  5 30  1  0
  8 31  1  0
  9 32  1  0
  9 33  1  0
 11 34  1  0
 11 35  1  0
 11 36  1  0
 12 37  1  0
 12 38  1  0
 14 39  1  0
 15 40  1  0
 16 41  1  0
 17 42  1  0
 18 43  1  0
 19 44  1  1
 20 45  1  0
 20 46  1  0
 20 47  1  0
 21 48  1  0
M  END
$$$$
mol_68
     RDKit          3D

 42 42  0  0  0  0  0  0  0  0999 V2000
    5.7630   -2.7745    0.3628 C   0  0  0  0  0  0  0  0  0  0  0  0
    4.6086   -1.9531    0.8394 C   0  0  0  0  0  0  0  0  0  0  0  0
    4.7638   -0.7126    1.0014 O   0  0  0  0  0  0  0  0  0  0  0  0
    3.3415   -2.5682    1.1152 N   0  0  0  0  0  0  0  0  0  0  0  0
    2.1778   -1.8037    1.5592 C   0  0  0  0  0  0  0  0  0  0  0  0
    1.5634   -1.0330    0.3881 C   0  0  0  0  0  0  0  0  0  0  0  0
    0.3907   -0.2669    0.8379 N   0  0  0  0  0  0  0  0  0  0  0  0
    0.5758    1.1488    1.1965 C   0  0  0  0  0  0  0  0  0  0  0  0
    0.0266    2.0494    0.1264 C   0  0  0  0  0  0  0  0  0  0  0  0
    0.3718    1.9373   -1.2172 C   0  0  0  0  0  0  0  0  0  0  0  0
   -0.4388    3.1409   -2.0633 S   0  0  0  0  0  0  0  0  0  0  0  0
   -1.2181    3.8249   -0.7418 C   0  0  0  0  0  0  0  0  0  0  0  0
   -0.8529    3.1113    0.3905 C   0  0  0  0  0  0  0  0  0  0  0  0
   -0.8867   -0.9394    0.9740 C   0  0  0  0  0  0  0  0  0  0  0  0
   -0.9737   -2.1656    0.6880 O   0  0  0  0  0  0  0  0  0  0  0  0
   -2.1150   -0.2538    1.5174 C   0  0  0  0  0  0  0  0  0  0  0  0
   -3.6102   -0.7587    0.5903 S   0  0  0  0  0  0  0  0  0  0  0  0
   -3.3138    0.2901   -0.8839 C   0  0  0  0  0  0  0  0  0  0  0  0
   -4.0308    1.6303   -0.7175 C   0  0  0  0  0  0  0  0  0  0  0  0
   -3.8173   -0.4380   -2.1287 C   0  0  0  0  0  0  0  0  0  0  0  0
    6.0985   -2.4032   -0.6280 H   0  0  0  0  0  0  0  0  0  0  0  0
    5.4780   -3.8429    0.2657 H   0  0  0  0  0  0  0  0  0  0  0  0
    6.6011   -2.6921    1.0859 H   0  0  0  0  0  0  0  0  0  0  0  0
    3.2545   -3.6075    1.0506 H   0  0  0  0  0  0  0  0  0  0  0  0
    2.4730   -1.1023    2.3697 H   0  0  0  0  0  0  0  0  0  0  0  0
    1.4212   -2.5038    1.9744 H   0  0  0  0  0  0  0  0  0  0  0  0
    2.3243   -0.3509   -0.0490 H   0  0  0  0  0  0  0  0  0  0  0  0
    1.2741   -1.7370   -0.4224 H   0  0  0  0  0  0  0  0  0  0  0  0
    1.6565    1.3811    1.3145 H   0  0  0  0  0  0  0  0  0  0  0  0
    0.1110    1.3577    2.1838 H   0  0  0  0  0  0  0  0  0  0  0  0
    1.0390    1.2025   -1.6468 H   0  0  0  0  0  0  0  0  0  0  0  0
   -1.8894    4.6724   -0.7664 H   0  0  0  0  0  0  0  0  0  0  0  0
   -1.2185    3.3534    1.3799 H   0  0  0  0  0  0  0  0  0  0  0  0
   -2.2436   -0.5580    2.5766 H   0  0  0  0  0  0  0  0  0  0  0  0
   -2.0384    0.8473    1.4964 H   0  0  0  0  0  0  0  0  0  0  0  0
   -2.2274    0.4764   -1.0182 H   0  0  0  0  0  0  0  0  0  0  0  0
   -5.1272    1.4773   -0.6226 H   0  0  0  0  0  0  0  0  0  0  0  0
   -3.8314    2.2822   -1.5946 H   0  0  0  0  0  0  0  0  0  0  0  0
   -3.6662    2.1503    0.1923 H   0  0  0  0  0  0  0  0  0  0  0  0
   -3.6323    0.1781   -3.0345 H   0  0  0  0  0  0  0  0  0  0  0  0
   -4.9060   -0.6454   -2.0483 H   0  0  0  0  0  0  0  0  0  0  0  0
   -3.2765   -1.4011   -2.2461 H   0  0  0  0  0  0  0  0  0  0  0  0
  1  2  1  0
  2  3  2  0
  2  4  1  0
  4  5  1  0
  5  6  1  0
  6  7  1  0
  7  8  1  0
  8  9  1  0
  9 10  2  0
 10 11  1  0
 11 12  1  0
 12 13  2  0
  7 14  1  0
 14 15  2  0
 14 16  1  0
 16 17  1  0
 17 18  1  0
 18 19  1  0
 18 20  1  0
 13  9  1  0
  1 21  1  0
  1 22  1  0
  1 23  1  0
  4 24  1  0
  5 25  1  0
  5 26  1  0
  6 27  1  0
  6 28  1  0
  8 29  1  0
  8 30  1  0
 10 31  1  0
 12 32  1  0
 13 33  1  0
 16 34  1  0
 16 35  1  0
 18 36  1  0
 19 37  1  0
 19 38  1  0
 19 39  1  0
 20 40  1  0
 20 41  1  0
 20 42  1  0
M  END
$$$$
mol_69
     RDKit          3D

 39 39  0  0  0  0  0  0  0  0999 V2000
    4.1164   -1.2998   -1.4406 C   0  0  0  0  0  0  0  0  0  0  0  0
    2.6988   -1.1741   -0.8862 C   0  0  0  0  0  0  0  0  0  0  0  0
    2.6789   -0.7295    0.5820 C   0  0  0  0  0  0  0  0  0  0  0  0
    3.4549    0.9104    0.8721 S   0  0  0  0  0  0  0  0  0  0  0  0
    2.2692    1.9634   -0.0461 C   0  0  0  0  0  0  0  0  0  0  0  0
    0.8626    1.7766    0.4350 C   0  0  0  0  0  0  0  0  0  0  0  0
    0.5914    1.9755    1.6504 O   0  0  0  0  0  0  0  0  0  0  0  0
   -0.1673    1.3758   -0.4807 N   0  0  0  0  0  0  0  0  0  0  0  0
   -1.4932    0.9520   -0.0198 C   0  0  1  0  0  0  0  0  0  0  0  0
   -2.5051    0.9570   -1.1808 C   0  0  0  0  0  0  0  0  0  0  0  0
   -2.6107    2.2554   -1.7369 O   0  0  0  0  0  0  0  0  0  0  0  0
   -3.7325    2.9293   -1.2101 C   0  0  0  0  0  0  0  0  0  0  0  0
   -1.3993   -0.4244    0.6038 C   0  0  0  0  0  0  0  0  0  0  0  0
   -0.8924   -1.5118   -0.1323 C   0  0  0  0  0  0  0  0  0  0  0  0
   -0.7784   -2.7731    0.4581 C   0  0  0  0  0  0  0  0  0  0  0  0
   -1.1700   -2.9635    1.7851 C   0  0  0  0  0  0  0  0  0  0  0  0
   -1.6766   -1.8914    2.5258 C   0  0  0  0  0  0  0  0  0  0  0  0
   -2.2065   -2.1525    4.3419 Br  0  0  0  0  0  0  0  0  0  0  0  0
   -1.7907   -0.6262    1.9389 C   0  0  0  0  0  0  0  0  0  0  0  0
    4.7195   -1.9866   -0.8095 H   0  0  0  0  0  0  0  0  0  0  0  0
    4.0749   -1.7104   -2.4714 H   0  0  0  0  0  0  0  0  0  0  0  0
    4.6101   -0.3064   -1.4811 H   0  0  0  0  0  0  0  0  0  0  0  0
    2.2064   -2.1682   -0.9550 H   0  0  0  0  0  0  0  0  0  0  0  0
    2.1094   -0.4769   -1.5152 H   0  0  0  0  0  0  0  0  0  0  0  0
    3.2293   -1.4775    1.1912 H   0  0  0  0  0  0  0  0  0  0  0  0
    1.6361   -0.7234    0.9572 H   0  0  0  0  0  0  0  0  0  0  0  0
    2.3531    1.7629   -1.1333 H   0  0  0  0  0  0  0  0  0  0  0  0
    2.5572    3.0232    0.1134 H   0  0  0  0  0  0  0  0  0  0  0  0
    0.0545    1.3461   -1.5021 H   0  0  0  0  0  0  0  0  0  0  0  0
   -1.8564    1.6847    0.7342 H   0  0  0  0  0  0  0  0  0  0  0  0
   -2.1493    0.2764   -1.9832 H   0  0  0  0  0  0  0  0  0  0  0  0
   -3.4829    0.5397   -0.8371 H   0  0  0  0  0  0  0  0  0  0  0  0
   -4.6760    2.4452   -1.5458 H   0  0  0  0  0  0  0  0  0  0  0  0
   -3.6963    2.9793   -0.0994 H   0  0  0  0  0  0  0  0  0  0  0  0
   -3.7327    3.9700   -1.5938 H   0  0  0  0  0  0  0  0  0  0  0  0
   -0.5693   -1.3793   -1.1570 H   0  0  0  0  0  0  0  0  0  0  0  0
   -0.3807   -3.6024   -0.1124 H   0  0  0  0  0  0  0  0  0  0  0  0
   -1.0776   -3.9425    2.2374 H   0  0  0  0  0  0  0  0  0  0  0  0
   -2.1788    0.1970    2.5257 H   0  0  0  0  0  0  0  0  0  0  0  0
  1  2  1  0
  2  3  1  0
  3  4  1  0
  4  5  1  0
  5  6  1  0
  6  7  2  0
  6  8  1  0
  8  9  1  0
  9 10  1  0
 10 11  1  0
 11 12  1  0
  9 13  1  0
 13 14  2  0
 14 15  1  0
 15 16  2  0
 16 17  1  0
 17 18  1  0
 17 19  2  0
 19 13  1  0
  1 20  1  0
  1 21  1  0
  1 22  1  0
  2 23  1  0
  2 24  1  0
  3 25  1  0
  3 26  1  0
  5 27  1  0
  5 28  1  0
  8 29  1  0
  9 30  1  1
 10 31  1  0
 10 32  1  0
 12 33  1  0
 12 34  1  0
 12 35  1  0
 14 36  1  0
 15 37  1  0
 16 38  1  0
 19 39  1  0
M  END
$$$$
mol_70
     RDKit          3D

 49 50  0  0  0  0  0  0  0  0999 V2000
   -3.1737   -1.6320    2.0210 C   0  0  0  0  0  0  0  0  0  0  0  0
   -2.2378   -1.3480    0.8345 C   0  0  1  0  0  0  0  0  0  0  0  0
   -2.9975   -1.1721   -0.5034 C   0  0  0  0  0  0  0  0  0  0  0  0
   -4.2267   -0.2442   -0.4845 C   0  0  0  0  0  0  0  0  0  0  0  0
   -4.0407    1.1581    0.1259 C   0  0  0  0  0  0  0  0  0  0  0  0
   -2.6055    1.6999    0.1092 C   0  0  0  0  0  0  0  0  0  0  0  0
   -1.7741    1.1894    1.2988 C   0  0  0  0  0  0  0  0  0  0  0  0
   -1.2000   -0.2338    1.1449 C   0  0  2  0  0  0  0  0  0  0  0  0
   -0.1151   -0.2423    0.1512 N   0  0  0  0  0  0  0  0  0  0  0  0
    1.2378   -0.6156    0.4664 C   0  0  0  0  0  0  0  0  0  0  0  0
    1.5698   -0.8075    1.6678 O   0  0  0  0  0  0  0  0  0  0  0  0
    2.2341   -0.7473   -0.5718 N   0  0  0  0  0  0  0  0  0  0  0  0
    1.8764   -1.1968   -1.9291 C   0  0  0  0  0  0  0  0  0  0  0  0
    1.4656   -2.6701   -1.9336 C   0  0  0  0  0  0  0  0  0  0  0  0
    0.2143   -2.8281   -1.3255 O   0  0  0  0  0  0  0  0  0  0  0  0
    3.6422   -0.4779   -0.2429 C   0  0  0  0  0  0  0  0  0  0  0  0
    3.8417    0.9961    0.0219 C   0  0  0  0  0  0  0  0  0  0  0  0
    3.6345    1.9057   -1.0272 C   0  0  0  0  0  0  0  0  0  0  0  0
    3.7989    3.2743   -0.8169 C   0  0  0  0  0  0  0  0  0  0  0  0
    4.1690    3.7304    0.4466 C   0  0  0  0  0  0  0  0  0  0  0  0
    4.3716    2.8451    1.4564 N   0  0  0  0  0  0  0  0  0  0  0  0
    4.2224    1.5036    1.2845 C   0  0  0  0  0  0  0  0  0  0  0  0
    4.5194    0.4612    2.6700 Cl  0  0  0  0  0  0  0  0  0  0  0  0
   -3.8717   -2.4583    1.7670 H   0  0  0  0  0  0  0  0  0  0  0  0
   -2.5805   -1.9442    2.9070 H   0  0  0  0  0  0  0  0  0  0  0  0
   -3.7663   -0.7393    2.2996 H   0  0  0  0  0  0  0  0  0  0  0  0
   -1.6379   -2.2785    0.7139 H   0  0  0  0  0  0  0  0  0  0  0  0
   -3.3569   -2.1751   -0.8228 H   0  0  0  0  0  0  0  0  0  0  0  0
   -2.3058   -0.8486   -1.3067 H   0  0  0  0  0  0  0  0  0  0  0  0
   -5.0598   -0.7543    0.0465 H   0  0  0  0  0  0  0  0  0  0  0  0
   -4.5631   -0.1243   -1.5379 H   0  0  0  0  0  0  0  0  0  0  0  0
   -4.6817    1.8635   -0.4468 H   0  0  0  0  0  0  0  0  0  0  0  0
   -4.4415    1.1753    1.1613 H   0  0  0  0  0  0  0  0  0  0  0  0
   -2.1129    1.5017   -0.8646 H   0  0  0  0  0  0  0  0  0  0  0  0
   -2.6681    2.8065    0.2038 H   0  0  0  0  0  0  0  0  0  0  0  0
   -0.9174    1.8849    1.4413 H   0  0  0  0  0  0  0  0  0  0  0  0
   -2.3708    1.2536    2.2347 H   0  0  0  0  0  0  0  0  0  0  0  0
   -0.7706   -0.4851    2.1399 H   0  0  0  0  0  0  0  0  0  0  0  0
   -0.3251    0.0843   -0.8144 H   0  0  0  0  0  0  0  0  0  0  0  0
    2.7420   -1.0823   -2.6166 H   0  0  0  0  0  0  0  0  0  0  0  0
    1.0728   -0.5660   -2.3595 H   0  0  0  0  0  0  0  0  0  0  0  0
    2.2315   -3.2725   -1.3953 H   0  0  0  0  0  0  0  0  0  0  0  0
    1.4105   -3.0245   -2.9874 H   0  0  0  0  0  0  0  0  0  0  0  0
    0.0081   -3.7974   -1.3679 H   0  0  0  0  0  0  0  0  0  0  0  0
    4.3143   -0.7772   -1.0756 H   0  0  0  0  0  0  0  0  0  0  0  0
    3.9427   -1.1086    0.6174 H   0  0  0  0  0  0  0  0  0  0  0  0
    3.3448    1.5531   -2.0094 H   0  0  0  0  0  0  0  0  0  0  0  0
    3.6375    3.9753   -1.6258 H   0  0  0  0  0  0  0  0  0  0  0  0
    4.2992    4.7896    0.6251 H   0  0  0  0  0  0  0  0  0  0  0  0
  1  2  1  0
  2  3  1  0
  3  4  1  0
  4  5  1  0
  5  6  1  0
  6  7  1  0
  7  8  1  0
  8  9  1  0
  9 10  1  0
 10 11  2  0
 10 12  1  0
 12 13  1  0
 13 14  1  0
 14 15  1  0
 12 16  1  0
 16 17  1  0
 17 18  2  0
 18 19  1  0
 19 20  2  0
 20 21  1  0
 21 22  2  0
 22 23  1  0
  8  2  1  0
 22 17  1  0
  1 24  1  0
  1 25  1  0
  1 26  1  0
  2 27  1  6
  3 28  1  0
  3 29  1  0
  4 30  1  0
  4 31  1  0
  5 32  1  0
  5 33  1  0
  6 34  1  0
  6 35  1  0
  7 36  1  0
  7 37  1  0
  8 38  1  1
  9 39  1  0
 13 40  1  0
 13 41  1  0
 14 42  1  0
 14 43  1  0
 15 44  1  0
 16 45  1  0
 16 46  1  0
 18 47  1  0
 19 48  1  0
 20 49  1  0
M  END
$$$$
mol_71
     RDKit          3D

 50 51  0  0  0  0  0  0  0  0999 V2000
   -5.4772    2.2504    1.9002 C   0  0  0  0  0  0  0  0  0  0  0  0
   -5.5081    1.7370    0.4604 C   0  0  0  0  0  0  0  0  0  0  0  0
   -4.7382    0.4162    0.2769 C   0  0  0  0  0  0  0  0  0  0  0  0
   -3.2112    0.5229    0.5176 C   0  0  0  0  0  0  0  0  0  0  0  0
   -2.5553    1.5587   -0.4373 C   0  0  0  0  0  0  0  0  0  0  0  0
   -1.0696    1.2613   -0.6573 C   0  0  0  0  0  0  0  0  0  0  0  0
   -0.8566   -0.1117   -1.3337 C   0  0  0  0  0  0  0  0  0  0  0  0
    0.4083   -0.6308   -0.9201 O   0  0  0  0  0  0  0  0  0  0  0  0
    1.4740   -0.9092   -1.7867 C   0  0  0  0  0  0  0  0  0  0  0  0
    1.3210   -0.8375   -3.0362 O   0  0  0  0  0  0  0  0  0  0  0  0
    2.7988   -1.3592   -1.2265 C   0  0  1  0  0  0  0  0  0  0  0  0
    3.9030   -0.7053   -1.9354 N   0  0  0  0  0  0  0  0  0  0  0  0
    5.2250   -1.2635   -1.9698 C   0  0  0  0  0  0  0  0  0  0  0  0
    6.3383   -0.5138   -2.6273 C   0  0  0  0  0  0  0  0  0  0  0  0
    5.4685   -2.3626   -1.4030 O   0  0  0  0  0  0  0  0  0  0  0  0
    2.8995   -1.0605    0.2543 C   0  0  0  0  0  0  0  0  0  0  0  0
    3.0058   -2.1079    1.1854 C   0  0  0  0  0  0  0  0  0  0  0  0
    3.0841   -1.8305    2.5534 C   0  0  0  0  0  0  0  0  0  0  0  0
    3.0541   -0.5084    3.0039 C   0  0  0  0  0  0  0  0  0  0  0  0
    2.9489    0.5412    2.0866 C   0  0  0  0  0  0  0  0  0  0  0  0
    2.8959    2.3474    2.7016 Br  0  0  0  0  0  0  0  0  0  0  0  0
    2.8757    0.2683    0.7171 C   0  0  0  0  0  0  0  0  0  0  0  0
   -1.9624   -1.1316   -0.9820 C   0  0  0  0  0  0  0  0  0  0  0  0
   -2.5432   -0.8772    0.4131 C   0  0  0  0  0  0  0  0  0  0  0  0
   -5.7799    1.4486    2.6061 H   0  0  0  0  0  0  0  0  0  0  0  0
   -6.1856    3.0990    2.0051 H   0  0  0  0  0  0  0  0  0  0  0  0
   -4.4632    2.6163    2.1639 H   0  0  0  0  0  0  0  0  0  0  0  0
   -5.1178    2.5197   -0.2243 H   0  0  0  0  0  0  0  0  0  0  0  0
   -6.5693    1.5585    0.1800 H   0  0  0  0  0  0  0  0  0  0  0  0
   -5.1719   -0.3386    0.9696 H   0  0  0  0  0  0  0  0  0  0  0  0
   -4.9175    0.0476   -0.7569 H   0  0  0  0  0  0  0  0  0  0  0  0
   -3.0497    0.8682    1.5623 H   0  0  0  0  0  0  0  0  0  0  0  0
   -3.0626    1.5543   -1.4278 H   0  0  0  0  0  0  0  0  0  0  0  0
   -2.6604    2.5791   -0.0082 H   0  0  0  0  0  0  0  0  0  0  0  0
   -0.5537    1.2850    0.3285 H   0  0  0  0  0  0  0  0  0  0  0  0
   -0.6187    2.0586   -1.2872 H   0  0  0  0  0  0  0  0  0  0  0  0
   -0.8796    0.0400   -2.4359 H   0  0  0  0  0  0  0  0  0  0  0  0
    2.8563   -2.4564   -1.4036 H   0  0  0  0  0  0  0  0  0  0  0  0
    3.7587    0.2527   -2.3305 H   0  0  0  0  0  0  0  0  0  0  0  0
    6.7736    0.2079   -1.9052 H   0  0  0  0  0  0  0  0  0  0  0  0
    7.1296   -1.2168   -2.9638 H   0  0  0  0  0  0  0  0  0  0  0  0
    5.9567    0.0388   -3.5109 H   0  0  0  0  0  0  0  0  0  0  0  0
    3.0264   -3.1388    0.8548 H   0  0  0  0  0  0  0  0  0  0  0  0
    3.1661   -2.6418    3.2653 H   0  0  0  0  0  0  0  0  0  0  0  0
    3.1105   -0.3007    4.0646 H   0  0  0  0  0  0  0  0  0  0  0  0
    2.7889    1.0875    0.0141 H   0  0  0  0  0  0  0  0  0  0  0  0
   -2.7825   -1.0635   -1.7301 H   0  0  0  0  0  0  0  0  0  0  0  0
   -1.5567   -2.1655   -1.0343 H   0  0  0  0  0  0  0  0  0  0  0  0
   -3.2605   -1.6874    0.6671 H   0  0  0  0  0  0  0  0  0  0  0  0
   -1.7161   -0.9457    1.1537 H   0  0  0  0  0  0  0  0  0  0  0  0
  1  2  1  0
  2  3  1  0
  3  4  1  0
  4  5  1  0
  5  6  1  0
  6  7  1  0
  7  8  1  0
  8  9  1  0
  9 10  2  0
  9 11  1  0
 11 12  1  0
 12 13  1  0
 13 14  1  0
 13 15  2  0
 11 16  1  0
 16 17  2  0
 17 18  1  0
 18 19  2  0
 19 20  1  0
 20 21  1  0
 20 22  2  0
  7 23  1  0
 23 24  1  0
 24  4  1  0
 22 16  1  0
  1 25  1  0
  1 26  1  0
  1 27  1  0
  2 28  1  0
  2 29  1  0
  3 30  1  0
  3 31  1  0
  4 32  1  0
  5 33  1  0
  5 34  1  0
  6 35  1  0
  6 36  1  0
  7 37  1  0
 11 38  1  1
 12 39  1  0
 14 40  1  0
 14 41  1  0
 14 42  1  0
 17 43  1  0
 18 44  1  0
 19 45  1  0
 22 46  1  0
 23 47  1  0
 23 48  1  0
 24 49  1  0
 24 50  1  0
M  END
$$$$
mol_72
     RDKit          3D

 34 34  0  0  0  0  0  0  0  0999 V2000
   -2.1343    2.7091   -0.1668 C   0  0  0  0  0  0  0  0  0  0  0  0
   -1.2585    1.4878   -0.5171 C   0  0  1  0  0  0  0  0  0  0  0  0
   -0.7498    1.6636   -1.8219 O   0  0  0  0  0  0  0  0  0  0  0  0
   -0.0732    1.3841    0.4805 C   0  0  0  0  0  0  0  0  0  0  0  0
    0.8055    0.2555    0.1644 N   0  0  0  0  0  0  0  0  0  0  0  0
    1.9575   -0.0418    0.9623 C   0  0  0  0  0  0  0  0  0  0  0  0
    2.2337    0.6735    1.9642 O   0  0  0  0  0  0  0  0  0  0  0  0
    2.7885   -1.1604    0.6229 N   0  0  0  0  0  0  0  0  0  0  0  0
    4.0015   -1.5018    1.3649 C   0  0  0  0  0  0  0  0  0  0  0  0
    5.1845   -0.6544    0.8971 C   0  0  0  0  0  0  0  0  0  0  0  0
    6.3282   -1.0555    1.5629 F   0  0  0  0  0  0  0  0  0  0  0  0
    4.9576    0.6831    1.1649 F   0  0  0  0  0  0  0  0  0  0  0  0
    5.3750   -0.8205   -0.4630 F   0  0  0  0  0  0  0  0  0  0  0  0
   -2.1165    0.2180   -0.4578 C   0  0  0  0  0  0  0  0  0  0  0  0
   -2.7377   -0.1709    0.7495 C   0  0  0  0  0  0  0  0  0  0  0  0
   -3.5155   -1.3303    0.8127 C   0  0  0  0  0  0  0  0  0  0  0  0
   -3.6884   -2.1214   -0.3230 C   0  0  0  0  0  0  0  0  0  0  0  0
   -3.0840   -1.7547   -1.5257 C   0  0  0  0  0  0  0  0  0  0  0  0
   -2.3046   -0.5962   -1.5972 C   0  0  0  0  0  0  0  0  0  0  0  0
   -2.5215    2.6475    0.8720 H   0  0  0  0  0  0  0  0  0  0  0  0
   -1.5467    3.6481   -0.2537 H   0  0  0  0  0  0  0  0  0  0  0  0
   -2.9966    2.7738   -0.8648 H   0  0  0  0  0  0  0  0  0  0  0  0
   -0.1852    2.4810   -1.8310 H   0  0  0  0  0  0  0  0  0  0  0  0
   -0.4489    1.2734    1.5202 H   0  0  0  0  0  0  0  0  0  0  0  0
    0.5238    2.3220    0.4466 H   0  0  0  0  0  0  0  0  0  0  0  0
    0.6051   -0.3517   -0.6623 H   0  0  0  0  0  0  0  0  0  0  0  0
    2.4919   -1.7890   -0.1573 H   0  0  0  0  0  0  0  0  0  0  0  0
    4.2419   -2.5732    1.1915 H   0  0  0  0  0  0  0  0  0  0  0  0
    3.8365   -1.3671    2.4559 H   0  0  0  0  0  0  0  0  0  0  0  0
   -2.6237    0.4204    1.6479 H   0  0  0  0  0  0  0  0  0  0  0  0
   -3.9850   -1.6157    1.7454 H   0  0  0  0  0  0  0  0  0  0  0  0
   -4.2909   -3.0190   -0.2713 H   0  0  0  0  0  0  0  0  0  0  0  0
   -3.2189   -2.3699   -2.4060 H   0  0  0  0  0  0  0  0  0  0  0  0
   -1.8514   -0.3474   -2.5472 H   0  0  0  0  0  0  0  0  0  0  0  0
  1  2  1  0
  2  3  1  6
  2  4  1  0
  4  5  1  0
  5  6  1  0
  6  7  2  0
  6  8  1  0
  8  9  1  0
  9 10  1  0
 10 11  1  0
 10 12  1  0
 10 13  1  0
  2 14  1  0
 14 15  2  0
 15 16  1  0
 16 17  2  0
 17 18  1  0
 18 19  2  0
 19 14  1  0
  1 20  1  0
  1 21  1  0
  1 22  1  0
  3 23  1  0
  4 24  1  0
  4 25  1  0
  5 26  1  0
  8 27  1  0
  9 28  1  0
  9 29  1  0
 15 30  1  0
 16 31  1  0
 17 32  1  0
 18 33  1  0
 19 34  1  0
M  END
$$$$
mol_73
     RDKit          3D

 29 29  0  0  0  0  0  0  0  0999 V2000
    5.1610   -1.2295   -0.9301 C   0  0  0  0  0  0  0  0  0  0  0  0
    3.8603   -0.5010   -0.8319 C   0  0  0  0  0  0  0  0  0  0  0  0
    3.2746   -0.1321   -1.8856 O   0  0  0  0  0  0  0  0  0  0  0  0
    3.3130   -0.1925    0.4593 N   0  0  0  0  0  0  0  0  0  0  0  0
    1.9911    0.3322    0.6716 C   0  0  0  0  0  0  0  0  0  0  0  0
    1.7576    1.2043    1.7399 C   0  0  0  0  0  0  0  0  0  0  0  0
    0.5123    1.7012    1.9654 N   0  0  0  0  0  0  0  0  0  0  0  0
   -0.5497    1.3595    1.1839 C   0  0  0  0  0  0  0  0  0  0  0  0
   -1.6739    1.8847    1.4080 O   0  0  0  0  0  0  0  0  0  0  0  0
   -0.3806    0.4456    0.1232 C   0  0  0  0  0  0  0  0  0  0  0  0
   -1.5093    0.0175   -0.7373 C   0  0  0  0  0  0  0  0  0  0  0  0
   -1.3041   -0.1914   -1.9646 O   0  0  0  0  0  0  0  0  0  0  0  0
   -2.8182   -0.1971   -0.1888 N   0  0  0  0  0  0  0  0  0  0  0  0
   -3.9690   -0.4647   -1.0534 C   0  0  0  0  0  0  0  0  0  0  0  0
   -5.2492   -0.6812   -0.2422 C   0  0  0  0  0  0  0  0  0  0  0  0
   -5.4849    0.4113    0.5735 F   0  0  0  0  0  0  0  0  0  0  0  0
   -6.3174   -0.8298   -1.1077 F   0  0  0  0  0  0  0  0  0  0  0  0
   -5.1147   -2.2806    0.8492 Br  0  0  0  0  0  0  0  0  0  0  0  0
    0.9057   -0.0561   -0.1279 C   0  0  0  0  0  0  0  0  0  0  0  0
    5.4464   -1.3812   -1.9929 H   0  0  0  0  0  0  0  0  0  0  0  0
    5.0690   -2.2197   -0.4373 H   0  0  0  0  0  0  0  0  0  0  0  0
    5.9556   -0.6419   -0.4247 H   0  0  0  0  0  0  0  0  0  0  0  0
    3.9471   -0.2756    1.2862 H   0  0  0  0  0  0  0  0  0  0  0  0
    2.5762    1.5023    2.3837 H   0  0  0  0  0  0  0  0  0  0  0  0
    0.3753    2.3704    2.7565 H   0  0  0  0  0  0  0  0  0  0  0  0
   -2.9374   -0.2013    0.8493 H   0  0  0  0  0  0  0  0  0  0  0  0
   -4.1175    0.3994   -1.7366 H   0  0  0  0  0  0  0  0  0  0  0  0
   -3.7693   -1.3681   -1.6696 H   0  0  0  0  0  0  0  0  0  0  0  0
    1.0498   -0.7805   -0.9191 H   0  0  0  0  0  0  0  0  0  0  0  0
  1  2  1  0
  2  3  2  0
  2  4  1  0
  4  5  1  0
  5  6  2  0
  6  7  1  0
  7  8  1  0
  8  9  2  0
  8 10  1  0
 10 11  1  0
 11 12  2  0
 11 13  1  0
 13 14  1  0
 14 15  1  0
 15 16  1  0
 15 17  1  0
 15 18  1  0
 10 19  2  0
 19  5  1  0
  1 20  1  0
  1 21  1  0
  1 22  1  0
  4 23  1  0
  6 24  1  0
  7 25  1  0
 13 26  1  0
 14 27  1  0
 14 28  1  0
 19 29  1  0
M  END
$$$$
mol_74
     RDKit          3D

 39 40  0  0  0  0  0  0  0  0999 V2000
    1.1007    2.9882   -1.7653 C   0  0  0  0  0  0  0  0  0  0  0  0
    0.8567    1.5927   -1.2888 C   0  0  0  0  0  0  0  0  0  0  0  0
    1.6060    0.6666   -1.7011 O   0  0  0  0  0  0  0  0  0  0  0  0
   -0.2120    1.3130   -0.3705 N   0  0  0  0  0  0  0  0  0  0  0  0
   -0.4026   -0.0022    0.2518 C   0  0  1  0  0  0  0  0  0  0  0  0
    0.1366    0.0149    1.6934 C   0  0  0  0  0  0  0  0  0  0  0  0
    1.6269    0.2440    1.7204 C   0  0  0  0  0  0  0  0  0  0  0  0
    2.5051   -0.7676    1.2975 C   0  0  0  0  0  0  0  0  0  0  0  0
    3.8860   -0.5505    1.3025 C   0  0  0  0  0  0  0  0  0  0  0  0
    4.4036    0.6787    1.7326 C   0  0  0  0  0  0  0  0  0  0  0  0
    5.7776    0.9074    1.7399 O   0  0  0  0  0  0  0  0  0  0  0  0
    3.5333    1.6869    2.1591 C   0  0  0  0  0  0  0  0  0  0  0  0
    2.1517    1.4722    2.1558 C   0  0  0  0  0  0  0  0  0  0  0  0
   -1.8716   -0.3546    0.2470 C   0  0  0  0  0  0  0  0  0  0  0  0
   -2.6941    0.4388    0.7820 O   0  0  0  0  0  0  0  0  0  0  0  0
   -2.3502   -1.5704   -0.3633 N   0  0  0  0  0  0  0  0  0  0  0  0
   -1.5659   -2.8051   -0.2605 C   0  0  0  0  0  0  0  0  0  0  0  0
   -3.5613   -1.5524   -1.1459 C   0  0  0  0  0  0  0  0  0  0  0  0
   -4.2959   -0.4370   -1.3588 N   0  0  0  0  0  0  0  0  0  0  0  0
   -5.3732   -0.6806   -2.1519 C   0  0  0  0  0  0  0  0  0  0  0  0
   -5.5039   -1.9946   -2.5853 C   0  0  0  0  0  0  0  0  0  0  0  0
   -4.2222   -2.8787   -1.9507 S   0  0  0  0  0  0  0  0  0  0  0  0
    1.0103    3.0243   -2.8710 H   0  0  0  0  0  0  0  0  0  0  0  0
    2.1231    3.3058   -1.4720 H   0  0  0  0  0  0  0  0  0  0  0  0
    0.3673    3.6946   -1.3236 H   0  0  0  0  0  0  0  0  0  0  0  0
   -0.7836    2.1143   -0.0176 H   0  0  0  0  0  0  0  0  0  0  0  0
    0.1467   -0.7730   -0.3286 H   0  0  0  0  0  0  0  0  0  0  0  0
   -0.0852   -0.9527    2.1946 H   0  0  0  0  0  0  0  0  0  0  0  0
   -0.3867    0.8081    2.2725 H   0  0  0  0  0  0  0  0  0  0  0  0
    2.1191   -1.7222    0.9615 H   0  0  0  0  0  0  0  0  0  0  0  0
    4.5522   -1.3370    0.9715 H   0  0  0  0  0  0  0  0  0  0  0  0
    6.4341    0.1975    1.4368 H   0  0  0  0  0  0  0  0  0  0  0  0
    3.9279    2.6387    2.4912 H   0  0  0  0  0  0  0  0  0  0  0  0
    1.4927    2.2675    2.4813 H   0  0  0  0  0  0  0  0  0  0  0  0
   -2.2339   -3.6761   -0.0945 H   0  0  0  0  0  0  0  0  0  0  0  0
   -0.9845   -2.9577   -1.1939 H   0  0  0  0  0  0  0  0  0  0  0  0
   -0.8692   -2.7635    0.6032 H   0  0  0  0  0  0  0  0  0  0  0  0
   -6.0716    0.0992   -2.4239 H   0  0  0  0  0  0  0  0  0  0  0  0
   -6.2902   -2.3773   -3.2216 H   0  0  0  0  0  0  0  0  0  0  0  0
  1  2  1  0
  2  3  2  0
  2  4  1  0
  4  5  1  0
  5  6  1  0
  6  7  1  0
  7  8  2  0
  8  9  1  0
  9 10  2  0
 10 11  1  0
 10 12  1  0
 12 13  2  0
  5 14  1  0
 14 15  2  0
 14 16  1  0
 16 17  1  0
 16 18  1  0
 18 19  2  0
 19 20  1  0
 20 21  2  0
 21 22  1  0
 13  7  1  0
 22 18  1  0
  1 23  1  0
  1 24  1  0
  1 25  1  0
  4 26  1  0
  5 27  1  6
  6 28  1  0
  6 29  1  0
  8 30  1  0
  9 31  1  0
 11 32  1  0
 12 33  1  0
 13 34  1  0
 17 35  1  0
 17 36  1  0
 17 37  1  0
 20 38  1  0
 21 39  1  0
M  END
$$$$
mol_75
     RDKit          3D

 36 37  0  0  0  0  0  0  0  0999 V2000
    1.2689   -0.9456    0.7250 O   0  0  0  0  0  0  0  0  0  0  0  0
    2.0278   -0.0434    0.2736 C   0  0  0  0  0  0  0  0  0  0  0  0
    3.4497   -0.2275    0.2887 N   0  0  0  0  0  0  0  0  0  0  0  0
    4.0519   -1.4531    0.8165 C   0  0  0  0  0  0  0  0  0  0  0  0
    5.5805   -1.4076    0.7499 C   0  0  0  0  0  0  0  0  0  0  0  0
    5.9929   -1.1836   -0.5517 F   0  0  0  0  0  0  0  0  0  0  0  0
    6.0914   -2.6197    1.1767 F   0  0  0  0  0  0  0  0  0  0  0  0
    6.2812   -0.0066    1.8959 Br  0  0  0  0  0  0  0  0  0  0  0  0
    1.4300    1.2316   -0.2713 C   0  0  2  0  0  0  0  0  0  0  0  0
    0.6499    1.9942    0.8246 C   0  0  0  0  0  0  0  0  0  0  0  0
   -0.7489    1.9220    0.3586 C   0  0  0  0  0  0  0  0  0  0  0  0
   -1.7253    2.3973    0.9973 O   0  0  0  0  0  0  0  0  0  0  0  0
   -0.8827    1.2797   -0.8940 N   0  0  0  0  0  0  0  0  0  0  0  0
   -2.1361    1.1140   -1.6274 C   0  0  0  0  0  0  0  0  0  0  0  0
   -3.0248    0.1253   -0.9181 C   0  0  0  0  0  0  0  0  0  0  0  0
   -4.2540    0.5199   -0.3549 C   0  0  0  0  0  0  0  0  0  0  0  0
   -4.6762    1.8071   -0.4368 F   0  0  0  0  0  0  0  0  0  0  0  0
   -5.0556   -0.4173    0.3059 C   0  0  0  0  0  0  0  0  0  0  0  0
   -4.6419   -1.7477    0.4100 C   0  0  0  0  0  0  0  0  0  0  0  0
   -3.4246   -2.1465   -0.1467 C   0  0  0  0  0  0  0  0  0  0  0  0
   -2.6187   -1.2158   -0.8086 C   0  0  0  0  0  0  0  0  0  0  0  0
    0.4272    0.9362   -1.4157 C   0  0  0  0  0  0  0  0  0  0  0  0
    4.0591    0.5333   -0.0887 H   0  0  0  0  0  0  0  0  0  0  0  0
    3.7361   -1.5959    1.8728 H   0  0  0  0  0  0  0  0  0  0  0  0
    3.6904   -2.3205    0.2228 H   0  0  0  0  0  0  0  0  0  0  0  0
    2.2418    1.8850   -0.6611 H   0  0  0  0  0  0  0  0  0  0  0  0
    0.9718    3.0567    0.8719 H   0  0  0  0  0  0  0  0  0  0  0  0
    0.7454    1.5294    1.8304 H   0  0  0  0  0  0  0  0  0  0  0  0
   -1.9299    0.7401   -2.6539 H   0  0  0  0  0  0  0  0  0  0  0  0
   -2.6262    2.1050   -1.7342 H   0  0  0  0  0  0  0  0  0  0  0  0
   -5.9992   -0.1120    0.7396 H   0  0  0  0  0  0  0  0  0  0  0  0
   -5.2646   -2.4695    0.9225 H   0  0  0  0  0  0  0  0  0  0  0  0
   -3.1048   -3.1773   -0.0653 H   0  0  0  0  0  0  0  0  0  0  0  0
   -1.6773   -1.5393   -1.2348 H   0  0  0  0  0  0  0  0  0  0  0  0
    0.6509    1.5801   -2.2940 H   0  0  0  0  0  0  0  0  0  0  0  0
    0.4439   -0.1279   -1.7388 H   0  0  0  0  0  0  0  0  0  0  0  0
  1  2  2  0
  2  3  1  0
  3  4  1  0
  4  5  1  0
  5  6  1  0
  5  7  1  0
  5  8  1  0
  2  9  1  0
  9 10  1  0
 10 11  1  0
 11 12  2  0
 11 13  1  0
 13 14  1  0
 14 15  1  0
 15 16  2  0
 16 17  1  0
 16 18  1  0
 18 19  2  0
 19 20  1  0
 20 21  2  0
 13 22  1  0
 22  9  1  0
 21 15  1  0
  3 23  1  0
  4 24  1  0
  4 25  1  0
  9 26  1  6
 10 27  1  0
 10 28  1  0
 14 29  1  0
 14 30  1  0
 18 31  1  0
 19 32  1  0
 20 33  1  0
 21 34  1  0
 22 35  1  0
 22 36  1  0
M  END
$$$$
mol_76
     RDKit          3D

 31 31  0  0  0  0  0  0  0  0999 V2000
    1.9335    2.0622   -1.2100 O   0  0  0  0  0  0  0  0  0  0  0  0
    1.7501    1.3822   -0.1641 C   0  0  0  0  0  0  0  0  0  0  0  0
    0.3559    1.1606    0.3377 C   0  0  0  0  0  0  0  0  0  0  0  0
   -0.1533   -0.2183   -0.0958 C   0  0  0  0  0  0  0  0  0  0  0  0
   -1.5699   -0.4469    0.3897 C   0  0  0  0  0  0  0  0  0  0  0  0
   -2.7090   -0.3737   -0.4642 C   0  0  0  0  0  0  0  0  0  0  0  0
   -2.5872   -0.0467   -1.9414 C   0  0  0  0  0  0  0  0  0  0  0  0
   -1.9394   -1.0805   -2.5929 F   0  0  0  0  0  0  0  0  0  0  0  0
   -3.8268    0.1262   -2.5338 F   0  0  0  0  0  0  0  0  0  0  0  0
   -1.8733    1.1257   -2.1117 F   0  0  0  0  0  0  0  0  0  0  0  0
   -3.9831   -0.6358    0.0828 C   0  0  0  0  0  0  0  0  0  0  0  0
   -4.1343   -0.9380    1.4363 C   0  0  0  0  0  0  0  0  0  0  0  0
   -3.0210   -0.9922    2.2696 C   0  0  0  0  0  0  0  0  0  0  0  0
   -1.7496   -0.7513    1.7520 C   0  0  0  0  0  0  0  0  0  0  0  0
    2.8614    0.7886    0.5216 N   0  0  0  0  0  0  0  0  0  0  0  0
    4.2270    0.8254   -0.0004 C   0  0  0  0  0  0  0  0  0  0  0  0
    4.4392   -0.2464   -1.0731 C   0  0  0  0  0  0  0  0  0  0  0  0
    3.5899   -0.0341   -2.1436 F   0  0  0  0  0  0  0  0  0  0  0  0
    5.7449   -0.1860   -1.5241 F   0  0  0  0  0  0  0  0  0  0  0  0
    4.1167   -2.0189   -0.3515 Br  0  0  0  0  0  0  0  0  0  0  0  0
    0.3527    1.2385    1.4463 H   0  0  0  0  0  0  0  0  0  0  0  0
   -0.3143    1.9528   -0.0618 H   0  0  0  0  0  0  0  0  0  0  0  0
   -0.0695   -0.3114   -1.1964 H   0  0  0  0  0  0  0  0  0  0  0  0
    0.5058   -1.0090    0.3268 H   0  0  0  0  0  0  0  0  0  0  0  0
   -4.8727   -0.6081   -0.5328 H   0  0  0  0  0  0  0  0  0  0  0  0
   -5.1198   -1.1320    1.8400 H   0  0  0  0  0  0  0  0  0  0  0  0
   -3.1423   -1.2273    3.3192 H   0  0  0  0  0  0  0  0  0  0  0  0
   -0.8960   -0.8086    2.4167 H   0  0  0  0  0  0  0  0  0  0  0  0
    2.6949    0.3208    1.4412 H   0  0  0  0  0  0  0  0  0  0  0  0
    4.9397    0.6433    0.8330 H   0  0  0  0  0  0  0  0  0  0  0  0
    4.4495    1.8323   -0.4152 H   0  0  0  0  0  0  0  0  0  0  0  0
  1  2  2  0
  2  3  1  0
  3  4  1  0
  4  5  1  0
  5  6  2  0
  6  7  1  0
  7  8  1  0
  7  9  1  0
  7 10  1  0
  6 11  1  0
 11 12  2  0
 12 13  1  0
 13 14  2  0
  2 15  1  0
 15 16  1  0
 16 17  1  0
 17 18  1  0
 17 19  1  0
 17 20  1  0
 14  5  1  0
  3 21  1  0
  3 22  1  0
  4 23  1  0
  4 24  1  0
 11 25  1  0
 12 26  1  0
 13 27  1  0
 14 28  1  0
 15 29  1  0
 16 30  1  0
 16 31  1  0
M  END
$$$$
mol_77
     RDKit          3D

 30 31  0  0  0  0  0  0  0  0999 V2000
    1.6514   -1.2176    1.6589 O   0  0  0  0  0  0  0  0  0  0  0  0
    1.5798   -0.3658    0.7302 C   0  0  0  0  0  0  0  0  0  0  0  0
    2.7668    0.0401    0.0355 N   0  0  0  0  0  0  0  0  0  0  0  0
    4.0798   -0.4982    0.3949 C   0  0  0  0  0  0  0  0  0  0  0  0
    5.1935    0.1018   -0.4671 C   0  0  0  0  0  0  0  0  0  0  0  0
    4.9276   -0.1178   -1.8071 F   0  0  0  0  0  0  0  0  0  0  0  0
    6.3945   -0.5037   -0.1461 F   0  0  0  0  0  0  0  0  0  0  0  0
    5.3618    2.0093   -0.1499 Br  0  0  0  0  0  0  0  0  0  0  0  0
    0.2379    0.2051    0.3417 C   0  0  1  0  0  0  0  0  0  0  0  0
   -0.6420   -0.8929   -0.2863 C   0  0  0  0  0  0  0  0  0  0  0  0
   -2.0493   -0.4063   -0.5328 C   0  0  0  0  0  0  0  0  0  0  0  0
   -2.6530    0.4775    0.3842 C   0  0  0  0  0  0  0  0  0  0  0  0
   -3.9889    0.8635    0.2042 C   0  0  0  0  0  0  0  0  0  0  0  0
   -4.7175    0.3821   -0.8871 C   0  0  0  0  0  0  0  0  0  0  0  0
   -4.1185   -0.4893   -1.8007 C   0  0  0  0  0  0  0  0  0  0  0  0
   -2.7904   -0.8879   -1.6231 C   0  0  0  0  0  0  0  0  0  0  0  0
   -1.8913    0.9973    1.4827 N   0  0  0  0  0  0  0  0  0  0  0  0
   -0.4687    0.8372    1.5190 C   0  0  0  0  0  0  0  0  0  0  0  0
    0.1844    1.2877    2.4993 O   0  0  0  0  0  0  0  0  0  0  0  0
    2.6812    0.7315   -0.7438 H   0  0  0  0  0  0  0  0  0  0  0  0
    4.2888   -0.2813    1.4650 H   0  0  0  0  0  0  0  0  0  0  0  0
    4.0708   -1.6010    0.2565 H   0  0  0  0  0  0  0  0  0  0  0  0
    0.3829    1.0032   -0.4188 H   0  0  0  0  0  0  0  0  0  0  0  0
   -0.1781   -1.2316   -1.2391 H   0  0  0  0  0  0  0  0  0  0  0  0
   -0.6991   -1.7689    0.3967 H   0  0  0  0  0  0  0  0  0  0  0  0
   -4.4602    1.5435    0.9025 H   0  0  0  0  0  0  0  0  0  0  0  0
   -5.7472    0.6856   -1.0256 H   0  0  0  0  0  0  0  0  0  0  0  0
   -4.6866   -0.8630   -2.6428 H   0  0  0  0  0  0  0  0  0  0  0  0
   -2.3449   -1.5795   -2.3274 H   0  0  0  0  0  0  0  0  0  0  0  0
   -2.3655    1.5391    2.2403 H   0  0  0  0  0  0  0  0  0  0  0  0
  1  2  2  0
  2  3  1  0
  3  4  1  0
  4  5  1  0
  5  6  1  0
  5  7  1  0
  5  8  1  0
  2  9  1  0
  9 10  1  0
 10 11  1  0
 11 12  2  0
 12 13  1  0
 13 14  2  0
 14 15  1  0
 15 16  2  0
 12 17  1  0
 17 18  1  0
 18 19  2  0
 18  9  1  0
 16 11  1  0
  3 20  1  0
  4 21  1  0
  4 22  1  0
  9 23  1  6
 10 24  1  0
 10 25  1  0
 13 26  1  0
 14 27  1  0
 15 28  1  0
 16 29  1  0
 17 30  1  0
M  END
$$$$
mol_78
     RDKit          3D

 38 38  0  0  0  0  0  0  0  0999 V2000
   -0.8409    3.2479   -2.3308 C   0  0  0  0  0  0  0  0  0  0  0  0
   -1.1202    2.1538   -1.4062 N   0  0  0  0  0  0  0  0  0  0  0  0
   -0.7434    0.7911   -1.6629 C   0  0  0  0  0  0  0  0  0  0  0  0
   -0.1926    0.4797   -2.7539 O   0  0  0  0  0  0  0  0  0  0  0  0
   -0.9911   -0.2867   -0.6324 C   0  0  2  0  0  0  0  0  0  0  0  0
   -2.5048   -0.4392   -0.3796 C   0  0  0  0  0  0  0  0  0  0  0  0
   -2.8065   -1.6649    0.3622 N   0  0  0  0  0  0  0  0  0  0  0  0
   -4.1469   -1.9951    0.7455 C   0  0  0  0  0  0  0  0  0  0  0  0
   -4.4190   -3.2630    1.4872 C   0  0  0  0  0  0  0  0  0  0  0  0
   -5.1024   -1.2272    0.4496 O   0  0  0  0  0  0  0  0  0  0  0  0
   -0.2267    0.0136    0.6776 C   0  0  0  0  0  0  0  0  0  0  0  0
    1.2628    0.1054    0.4514 C   0  0  0  0  0  0  0  0  0  0  0  0
    1.9237    1.3392    0.5543 C   0  0  0  0  0  0  0  0  0  0  0  0
    3.3018    1.4228    0.3365 C   0  0  0  0  0  0  0  0  0  0  0  0
    4.0409    0.2764   -0.0027 C   0  0  0  0  0  0  0  0  0  0  0  0
    5.5350    0.3584   -0.1894 C   0  0  0  0  0  0  0  0  0  0  0  0
    5.8974    1.5954   -0.6940 F   0  0  0  0  0  0  0  0  0  0  0  0
    6.1570    0.1698    1.0305 F   0  0  0  0  0  0  0  0  0  0  0  0
    5.9713   -0.6134   -1.0733 F   0  0  0  0  0  0  0  0  0  0  0  0
    3.3816   -0.9629   -0.0737 C   0  0  0  0  0  0  0  0  0  0  0  0
    2.0034   -1.0459    0.1433 C   0  0  0  0  0  0  0  0  0  0  0  0
   -1.7956    3.7249   -2.6351 H   0  0  0  0  0  0  0  0  0  0  0  0
   -0.2053    4.0034   -1.8237 H   0  0  0  0  0  0  0  0  0  0  0  0
   -0.3134    2.8941   -3.2408 H   0  0  0  0  0  0  0  0  0  0  0  0
   -1.6072    2.3915   -0.5137 H   0  0  0  0  0  0  0  0  0  0  0  0
   -0.6204   -1.2522   -1.0454 H   0  0  0  0  0  0  0  0  0  0  0  0
   -2.8854    0.4371    0.1894 H   0  0  0  0  0  0  0  0  0  0  0  0
   -3.0404   -0.4772   -1.3539 H   0  0  0  0  0  0  0  0  0  0  0  0
   -2.0425   -2.3361    0.6047 H   0  0  0  0  0  0  0  0  0  0  0  0
   -3.7883   -3.3033    2.3997 H   0  0  0  0  0  0  0  0  0  0  0  0
   -4.1784   -4.1305    0.8380 H   0  0  0  0  0  0  0  0  0  0  0  0
   -5.4873   -3.3203    1.7862 H   0  0  0  0  0  0  0  0  0  0  0  0
   -0.6089    0.9560    1.1272 H   0  0  0  0  0  0  0  0  0  0  0  0
   -0.4163   -0.7876    1.4234 H   0  0  0  0  0  0  0  0  0  0  0  0
    1.3727    2.2387    0.7997 H   0  0  0  0  0  0  0  0  0  0  0  0
    3.7900    2.3844    0.4340 H   0  0  0  0  0  0  0  0  0  0  0  0
    3.9325   -1.8685   -0.2949 H   0  0  0  0  0  0  0  0  0  0  0  0
    1.5137   -2.0097    0.0780 H   0  0  0  0  0  0  0  0  0  0  0  0
  1  2  1  0
  2  3  1  0
  3  4  2  0
  3  5  1  0
  5  6  1  0
  6  7  1  0
  7  8  1  0
  8  9  1  0
  8 10  2  0
  5 11  1  0
 11 12  1  0
 12 13  2  0
 13 14  1  0
 14 15  2  0
 15 16  1  0
 16 17  1  0
 16 18  1  0
 16 19  1  0
 15 20  1  0
 20 21  2  0
 21 12  1  0
  1 22  1  0
  1 23  1  0
  1 24  1  0
  2 25  1  0
  5 26  1  6
  6 27  1  0
  6 28  1  0
  7 29  1  0
  9 30  1  0
  9 31  1  0
  9 32  1  0
 11 33  1  0
 11 34  1  0
 13 35  1  0
 14 36  1  0
 20 37  1  0
 21 38  1  0
M  END
$$$$
mol_79
     RDKit          3D

 34 34  0  0  0  0  0  0  0  0999 V2000
    1.4655   -2.7515    0.8282 C   0  0  0  0  0  0  0  0  0  0  0  0
    0.8858   -1.4855    0.3651 N   0  0  0  0  0  0  0  0  0  0  0  0
   -0.5414   -1.2753    0.4012 C   0  0  0  0  0  0  0  0  0  0  0  0
   -1.3167   -2.2687    0.3959 O   0  0  0  0  0  0  0  0  0  0  0  0
   -1.0731    0.0632    0.4696 N   0  0  0  0  0  0  0  0  0  0  0  0
   -2.4822    0.4489    0.2393 C   0  0  0  0  0  0  0  0  0  0  0  0
   -3.4140   -0.2849    1.2288 C   0  0  0  0  0  0  0  0  0  0  0  0
   -2.6209    1.9675    0.4975 C   0  0  0  0  0  0  0  0  0  0  0  0
   -2.8894    0.1509   -1.2287 C   0  0  0  0  0  0  0  0  0  0  0  0
   -2.8600   -1.2059   -1.4932 F   0  0  0  0  0  0  0  0  0  0  0  0
   -2.0194    0.7834   -2.1002 F   0  0  0  0  0  0  0  0  0  0  0  0
   -4.1726    0.6084   -1.4780 F   0  0  0  0  0  0  0  0  0  0  0  0
    1.7521   -0.4921   -0.2184 C   0  0  0  0  0  0  0  0  0  0  0  0
    2.9205   -0.0790    0.4458 C   0  0  0  0  0  0  0  0  0  0  0  0
    3.7580    0.8888   -0.1278 C   0  0  0  0  0  0  0  0  0  0  0  0
    4.9140    1.3060    0.5282 O   0  0  0  0  0  0  0  0  0  0  0  0
    3.4314    1.4441   -1.3688 C   0  0  0  0  0  0  0  0  0  0  0  0
    2.2740    1.0372   -2.0365 C   0  0  0  0  0  0  0  0  0  0  0  0
    1.4383    0.0733   -1.4666 C   0  0  0  0  0  0  0  0  0  0  0  0
    0.6858   -3.4557    1.1863 H   0  0  0  0  0  0  0  0  0  0  0  0
    2.1609   -2.5684    1.6726 H   0  0  0  0  0  0  0  0  0  0  0  0
    2.0195   -3.2357   -0.0036 H   0  0  0  0  0  0  0  0  0  0  0  0
   -0.3882    0.8199    0.6974 H   0  0  0  0  0  0  0  0  0  0  0  0
   -4.4416    0.1366    1.1870 H   0  0  0  0  0  0  0  0  0  0  0  0
   -3.4990   -1.3651    0.9975 H   0  0  0  0  0  0  0  0  0  0  0  0
   -3.0339   -0.1755    2.2673 H   0  0  0  0  0  0  0  0  0  0  0  0
   -2.3257    2.2101    1.5414 H   0  0  0  0  0  0  0  0  0  0  0  0
   -1.9628    2.5439   -0.1879 H   0  0  0  0  0  0  0  0  0  0  0  0
   -3.6673    2.3099    0.3465 H   0  0  0  0  0  0  0  0  0  0  0  0
    3.1720   -0.4903    1.4142 H   0  0  0  0  0  0  0  0  0  0  0  0
    5.1792    0.9242    1.4286 H   0  0  0  0  0  0  0  0  0  0  0  0
    4.0751    2.1913   -1.8154 H   0  0  0  0  0  0  0  0  0  0  0  0
    2.0254    1.4672   -2.9982 H   0  0  0  0  0  0  0  0  0  0  0  0
    0.5511   -0.2413   -2.0010 H   0  0  0  0  0  0  0  0  0  0  0  0
  1  2  1  0
  2  3  1  0
  3  4  2  0
  3  5  1  0
  5  6  1  0
  6  7  1  0
  6  8  1  0
  6  9  1  0
  9 10  1  0
  9 11  1  0
  9 12  1  0
  2 13  1  0
 13 14  2  0
 14 15  1  0
 15 16  1  0
 15 17  2  0
 17 18  1  0
 18 19  2  0
 19 13  1  0
  1 20  1  0
  1 21  1  0
  1 22  1  0
  5 23  1  0
  7 24  1  0
  7 25  1  0
  7 26  1  0
  8 27  1  0
  8 28  1  0
  8 29  1  0
 14 30  1  0
 16 31  1  0
 17 32  1  0
 18 33  1  0
 19 34  1  0
M  END
$$$$
mol_80
     RDKit          3D

 37 37  0  0  0  0  0  0  0  0999 V2000
    1.8286    2.8626    0.6525 C   0  0  0  0  0  0  0  0  0  0  0  0
    0.5887    2.4598    1.4532 C   0  0  1  0  0  0  0  0  0  0  0  0
   -0.5528    3.0136    0.8504 O   0  0  0  0  0  0  0  0  0  0  0  0
    0.4575    0.9237    1.6040 C   0  0  0  0  0  0  0  0  0  0  0  0
   -0.4352    0.3114    0.5969 N   0  0  0  0  0  0  0  0  0  0  0  0
   -0.0038    0.2096   -0.8093 C   0  0  0  0  0  0  0  0  0  0  0  0
    1.2968   -0.5460   -0.9466 C   0  0  0  0  0  0  0  0  0  0  0  0
    2.3507   -0.0091   -1.7066 C   0  0  0  0  0  0  0  0  0  0  0  0
    3.5523   -0.7109   -1.8435 C   0  0  0  0  0  0  0  0  0  0  0  0
    3.7098   -1.9566   -1.2315 C   0  0  0  0  0  0  0  0  0  0  0  0
    2.6643   -2.5046   -0.4844 C   0  0  0  0  0  0  0  0  0  0  0  0
    1.4609   -1.8066   -0.3452 C   0  0  0  0  0  0  0  0  0  0  0  0
   -1.7464   -0.1737    0.9754 C   0  0  0  0  0  0  0  0  0  0  0  0
   -2.6143    0.6092    2.1365 S   0  0  0  0  0  0  0  0  0  0  0  0
   -2.2838   -1.3560    0.3513 N   0  0  0  0  0  0  0  0  0  0  0  0
   -3.7079   -1.6946    0.3130 C   0  0  0  0  0  0  0  0  0  0  0  0
   -4.4332   -0.8806   -0.7586 C   0  0  0  0  0  0  0  0  0  0  0  0
   -5.7555   -1.2801   -0.8220 F   0  0  0  0  0  0  0  0  0  0  0  0
   -3.8408   -1.0909   -1.9909 F   0  0  0  0  0  0  0  0  0  0  0  0
   -4.3880    0.4680   -0.4573 F   0  0  0  0  0  0  0  0  0  0  0  0
    1.9339    3.9682    0.6627 H   0  0  0  0  0  0  0  0  0  0  0  0
    1.7514    2.5359   -0.4013 H   0  0  0  0  0  0  0  0  0  0  0  0
    2.7434    2.4233    1.1044 H   0  0  0  0  0  0  0  0  0  0  0  0
    0.7240    2.8951    2.4723 H   0  0  0  0  0  0  0  0  0  0  0  0
   -1.2223    3.1493    1.5701 H   0  0  0  0  0  0  0  0  0  0  0  0
    0.0795    0.7073    2.6262 H   0  0  0  0  0  0  0  0  0  0  0  0
    1.4556    0.4367    1.5707 H   0  0  0  0  0  0  0  0  0  0  0  0
   -0.7680   -0.3072   -1.4266 H   0  0  0  0  0  0  0  0  0  0  0  0
    0.0754    1.2284   -1.2405 H   0  0  0  0  0  0  0  0  0  0  0  0
    2.2429    0.9486   -2.1996 H   0  0  0  0  0  0  0  0  0  0  0  0
    4.3605   -0.2899   -2.4275 H   0  0  0  0  0  0  0  0  0  0  0  0
    4.6405   -2.4985   -1.3385 H   0  0  0  0  0  0  0  0  0  0  0  0
    2.7866   -3.4706   -0.0118 H   0  0  0  0  0  0  0  0  0  0  0  0
    0.6673   -2.2438    0.2446 H   0  0  0  0  0  0  0  0  0  0  0  0
   -1.6269   -2.0184   -0.1164 H   0  0  0  0  0  0  0  0  0  0  0  0
   -4.1770   -1.5391    1.3074 H   0  0  0  0  0  0  0  0  0  0  0  0
   -3.8147   -2.7734    0.0662 H   0  0  0  0  0  0  0  0  0  0  0  0
  1  2  1  0
  2  3  1  0
  2  4  1  0
  4  5  1  0
  5  6  1  0
  6  7  1  0
  7  8  2  0
  8  9  1  0
  9 10  2  0
 10 11  1  0
 11 12  2  0
  5 13  1  0
 13 14  2  0
 13 15  1  0
 15 16  1  0
 16 17  1  0
 17 18  1  0
 17 19  1  0
 17 20  1  0
 12  7  1  0
  1 21  1  0
  1 22  1  0
  1 23  1  0
  2 24  1  1
  3 25  1  0
  4 26  1  0
  4 27  1  0
  6 28  1  0
  6 29  1  0
  8 30  1  0
  9 31  1  0
 10 32  1  0
 11 33  1  0
 12 34  1  0
 15 35  1  0
 16 36  1  0
 16 37  1  0
M  END
$$$$
mol_81
     RDKit          3D

 33 33  0  0  0  0  0  0  0  0999 V2000
    5.6236    0.3404    1.4439 C   0  0  0  0  0  0  0  0  0  0  0  0
    4.3411   -0.1886    1.1235 O   0  0  0  0  0  0  0  0  0  0  0  0
    3.4413    0.4049    0.2257 C   0  0  0  0  0  0  0  0  0  0  0  0
    3.7328    1.6035   -0.4534 C   0  0  0  0  0  0  0  0  0  0  0  0
    2.7999    2.1574   -1.3338 C   0  0  0  0  0  0  0  0  0  0  0  0
    1.5737    1.5243   -1.5482 C   0  0  0  0  0  0  0  0  0  0  0  0
    1.2732    0.3237   -0.8869 C   0  0  0  0  0  0  0  0  0  0  0  0
   -0.0624   -0.3424   -1.0964 C   0  0  0  0  0  0  0  0  0  0  0  0
   -1.1505    0.2939   -0.2062 C   0  0  2  0  0  0  0  0  0  0  0  0
   -0.8068    0.2165    1.1564 O   0  0  0  0  0  0  0  0  0  0  0  0
   -2.5020   -0.3283   -0.4797 C   0  0  0  0  0  0  0  0  0  0  0  0
   -2.9787   -0.2454   -1.6448 O   0  0  0  0  0  0  0  0  0  0  0  0
   -3.2548   -0.9906    0.5523 N   0  0  0  0  0  0  0  0  0  0  0  0
   -4.5932   -1.5358    0.3226 C   0  0  0  0  0  0  0  0  0  0  0  0
   -5.6630   -0.4460    0.4309 C   0  0  0  0  0  0  0  0  0  0  0  0
   -6.9066   -1.0055    0.2016 F   0  0  0  0  0  0  0  0  0  0  0  0
   -5.4422    0.5445   -0.5083 F   0  0  0  0  0  0  0  0  0  0  0  0
   -5.6614    0.3481    2.2016 Br  0  0  0  0  0  0  0  0  0  0  0  0
    2.2098   -0.2246    0.0049 C   0  0  0  0  0  0  0  0  0  0  0  0
    5.5184    1.3488    1.8968 H   0  0  0  0  0  0  0  0  0  0  0  0
    6.1190   -0.3286    2.1770 H   0  0  0  0  0  0  0  0  0  0  0  0
    6.2529    0.3955    0.5305 H   0  0  0  0  0  0  0  0  0  0  0  0
    4.6739    2.1153   -0.3057 H   0  0  0  0  0  0  0  0  0  0  0  0
    3.0268    3.0817   -1.8494 H   0  0  0  0  0  0  0  0  0  0  0  0
    0.8576    1.9694   -2.2279 H   0  0  0  0  0  0  0  0  0  0  0  0
    0.0129   -1.4317   -0.8826 H   0  0  0  0  0  0  0  0  0  0  0  0
   -0.3495   -0.2448   -2.1667 H   0  0  0  0  0  0  0  0  0  0  0  0
   -1.2290    1.3712   -0.4697 H   0  0  0  0  0  0  0  0  0  0  0  0
   -0.5599   -0.7249    1.3551 H   0  0  0  0  0  0  0  0  0  0  0  0
   -2.8357   -1.1365    1.4970 H   0  0  0  0  0  0  0  0  0  0  0  0
   -4.6416   -2.0227   -0.6755 H   0  0  0  0  0  0  0  0  0  0  0  0
   -4.8030   -2.3191    1.0831 H   0  0  0  0  0  0  0  0  0  0  0  0
    1.9833   -1.1433    0.5324 H   0  0  0  0  0  0  0  0  0  0  0  0
  1  2  1  0
  2  3  1  0
  3  4  2  0
  4  5  1  0
  5  6  2  0
  6  7  1  0
  7  8  1  0
  8  9  1  0
  9 10  1  0
  9 11  1  0
 11 12  2  0
 11 13  1  0
 13 14  1  0
 14 15  1  0
 15 16  1  0
 15 17  1  0
 15 18  1  0
  7 19  2  0
 19  3  1  0
  1 20  1  0
  1 21  1  0
  1 22  1  0
  4 23  1  0
  5 24  1  0
  6 25  1  0
  8 26  1  0
  8 27  1  0
  9 28  1  6
 10 29  1  0
 13 30  1  0
 14 31  1  0
 14 32  1  0
 19 33  1  0
M  END
$$$$
mol_82
     RDKit          3D

 54 56  0  0  0  0  0  0  0  0999 V2000
   -5.6507    2.2500   -2.6217 C   0  0  0  0  0  0  0  0  0  0  0  0
   -4.4006    1.4521   -2.9755 C   0  0  0  0  0  0  0  0  0  0  0  0
   -3.5217    1.3988   -1.8687 O   0  0  0  0  0  0  0  0  0  0  0  0
   -3.7456    0.2222   -1.1159 C   0  0  1  0  0  0  0  0  0  0  0  0
   -2.8699   -0.9384   -1.5889 C   0  0  0  0  0  0  0  0  0  0  0  0
   -2.1061   -0.9049   -0.2682 C   0  0  1  0  0  0  0  0  0  0  0  0
   -0.7079   -0.5061   -0.4539 N   0  0  0  0  0  0  0  0  0  0  0  0
    0.3834   -1.2079    0.1586 C   0  0  0  0  0  0  0  0  0  0  0  0
    0.1598   -2.1776    0.9342 O   0  0  0  0  0  0  0  0  0  0  0  0
    1.7975   -0.7425   -0.0692 C   0  0  1  0  0  0  0  0  0  0  0  0
    2.2295    0.1989    1.0665 C   0  0  0  0  0  0  0  0  0  0  0  0
    3.6252    0.7259    0.8421 C   0  0  0  0  0  0  0  0  0  0  0  0
    3.8776    1.6436   -0.1914 C   0  0  0  0  0  0  0  0  0  0  0  0
    5.1737    2.1181   -0.4128 C   0  0  0  0  0  0  0  0  0  0  0  0
    6.2294    1.6852    0.3957 C   0  0  0  0  0  0  0  0  0  0  0  0
    7.5161    2.1648    0.1623 O   0  0  0  0  0  0  0  0  0  0  0  0
    5.9831    0.7744    1.4319 C   0  0  0  0  0  0  0  0  0  0  0  0
    4.6879    0.2980    1.6554 C   0  0  0  0  0  0  0  0  0  0  0  0
    2.7028   -1.8956   -0.1385 N   0  0  0  0  0  0  0  0  0  0  0  0
    3.5542   -2.1593   -1.2628 C   0  0  0  0  0  0  0  0  0  0  0  0
    4.5132   -3.3032   -1.2157 C   0  0  0  0  0  0  0  0  0  0  0  0
    3.5287   -1.4126   -2.2781 O   0  0  0  0  0  0  0  0  0  0  0  0
   -2.9743    0.2684    0.2056 C   0  0  2  0  0  0  0  0  0  0  0  0
   -3.8321   -0.0394    1.3559 N   0  0  0  0  0  0  0  0  0  0  0  0
   -4.8486    0.7300    1.7890 C   0  0  0  0  0  0  0  0  0  0  0  0
   -5.3828    0.1512    2.9191 C   0  0  0  0  0  0  0  0  0  0  0  0
   -4.6212   -0.9823    3.1263 C   0  0  0  0  0  0  0  0  0  0  0  0
   -3.6793   -1.0744    2.1681 N   0  0  0  0  0  0  0  0  0  0  0  0
   -6.2979    2.3473   -3.5182 H   0  0  0  0  0  0  0  0  0  0  0  0
   -5.3665    3.2649   -2.2715 H   0  0  0  0  0  0  0  0  0  0  0  0
   -6.2241    1.7373   -1.8215 H   0  0  0  0  0  0  0  0  0  0  0  0
   -4.6830    0.4464   -3.3684 H   0  0  0  0  0  0  0  0  0  0  0  0
   -3.8775    1.9767   -3.8024 H   0  0  0  0  0  0  0  0  0  0  0  0
   -4.8188   -0.0565   -0.9854 H   0  0  0  0  0  0  0  0  0  0  0  0
   -2.2465   -0.6870   -2.4759 H   0  0  0  0  0  0  0  0  0  0  0  0
   -3.4540   -1.8761   -1.7133 H   0  0  0  0  0  0  0  0  0  0  0  0
   -2.2261   -1.8511    0.3018 H   0  0  0  0  0  0  0  0  0  0  0  0
   -0.4982    0.3375   -1.0355 H   0  0  0  0  0  0  0  0  0  0  0  0
    1.8217   -0.1773   -1.0257 H   0  0  0  0  0  0  0  0  0  0  0  0
    1.5274    1.0588    1.1323 H   0  0  0  0  0  0  0  0  0  0  0  0
    2.1721   -0.3452    2.0353 H   0  0  0  0  0  0  0  0  0  0  0  0
    3.0709    1.9895   -0.8259 H   0  0  0  0  0  0  0  0  0  0  0  0
    5.3582    2.8223   -1.2140 H   0  0  0  0  0  0  0  0  0  0  0  0
    8.3018    1.8715    0.7307 H   0  0  0  0  0  0  0  0  0  0  0  0
    6.7944    0.4337    2.0625 H   0  0  0  0  0  0  0  0  0  0  0  0
    4.5170   -0.4115    2.4555 H   0  0  0  0  0  0  0  0  0  0  0  0
    2.7799   -2.5205    0.6963 H   0  0  0  0  0  0  0  0  0  0  0  0
    3.9936   -4.2138   -0.8513 H   0  0  0  0  0  0  0  0  0  0  0  0
    4.9263   -3.5081   -2.2261 H   0  0  0  0  0  0  0  0  0  0  0  0
    5.3469   -3.0567   -0.5258 H   0  0  0  0  0  0  0  0  0  0  0  0
   -2.4098    1.2163    0.3574 H   0  0  0  0  0  0  0  0  0  0  0  0
   -5.1762    1.6484    1.3190 H   0  0  0  0  0  0  0  0  0  0  0  0
   -6.2104    0.5090    3.5158 H   0  0  0  0  0  0  0  0  0  0  0  0
   -4.7424   -1.6935    3.9320 H   0  0  0  0  0  0  0  0  0  0  0  0
  1  2  1  0
  2  3  1  0
  3  4  1  0
  4  5  1  0
  5  6  1  0
  6  7  1  0
  7  8  1  0
  8  9  2  0
  8 10  1  0
 10 11  1  0
 11 12  1  0
 12 13  2  0
 13 14  1  0
 14 15  2  0
 15 16  1  0
 15 17  1  0
 17 18  2  0
 10 19  1  0
 19 20  1  0
 20 21  1  0
 20 22  2  0
  6 23  1  0
 23 24  1  0
 24 25  1  0
 25 26  2  0
 26 27  1  0
 27 28  2  0
 23  4  1  0
 28 24  1  0
 18 12  1  0
  1 29  1  0
  1 30  1  0
  1 31  1  0
  2 32  1  0
  2 33  1  0
  4 34  1  1
  5 35  1  0
  5 36  1  0
  6 37  1  1
  7 38  1  0
 10 39  1  6
 11 40  1  0
 11 41  1  0
 13 42  1  0
 14 43  1  0
 16 44  1  0
 17 45  1  0
 18 46  1  0
 19 47  1  0
 21 48  1  0
 21 49  1  0
 21 50  1  0
 23 51  1  1
 25 52  1  0
 26 53  1  0
 27 54  1  0
M  END
$$$$
mol_83
     RDKit          3D

 57 58  0  0  0  0  0  0  0  0999 V2000
   -5.7799    3.0819    2.2411 C   0  0  0  0  0  0  0  0  0  0  0  0
   -5.5107    2.5740    0.8294 C   0  0  0  0  0  0  0  0  0  0  0  0
   -4.1456    2.7577    0.4956 O   0  0  0  0  0  0  0  0  0  0  0  0
   -3.3926    1.5875    0.7478 C   0  0  0  0  0  0  0  0  0  0  0  0
   -3.3083    0.7297   -0.5197 C   0  0  0  0  0  0  0  0  0  0  0  0
   -2.6083   -0.5398   -0.2632 N   0  0  0  0  0  0  0  0  0  0  0  0
   -1.3163   -0.5999    0.3817 C   0  0  0  0  0  0  0  0  0  0  0  0
   -1.1673   -1.3877    1.3566 O   0  0  0  0  0  0  0  0  0  0  0  0
   -0.1777    0.1593   -0.0776 N   0  0  0  0  0  0  0  0  0  0  0  0
   -0.1723    1.1017   -1.1840 C   0  0  0  0  0  0  0  0  0  0  0  0
    1.2736    1.5551   -1.3454 C   0  0  0  0  0  0  0  0  0  0  0  0
    2.1236    0.5741   -0.5385 C   0  0  1  0  0  0  0  0  0  0  0  0
    3.1528    1.2714    0.1429 O   0  0  0  0  0  0  0  0  0  0  0  0
    4.2163    0.4013    0.4926 C   0  0  0  0  0  0  0  0  0  0  0  0
    5.3539    0.5312   -0.5304 C   0  0  0  0  0  0  0  0  0  0  0  0
    6.4843   -0.5001   -0.3127 C   0  0  0  0  0  0  0  0  0  0  0  0
    7.2081   -0.2854    1.0265 C   0  0  0  0  0  0  0  0  0  0  0  0
    7.4906   -0.4251   -1.4680 C   0  0  0  0  0  0  0  0  0  0  0  0
    1.1568   -0.0847    0.4450 C   0  0  0  0  0  0  0  0  0  0  0  0
   -3.3146   -1.7813   -0.4543 C   0  0  0  0  0  0  0  0  0  0  0  0
   -2.7155   -2.8271   -1.1756 C   0  0  0  0  0  0  0  0  0  0  0  0
   -3.3926   -4.0371   -1.3583 C   0  0  0  0  0  0  0  0  0  0  0  0
   -4.6706   -4.2143   -0.8168 C   0  0  0  0  0  0  0  0  0  0  0  0
   -5.5181   -5.7329   -1.0434 Cl  0  0  0  0  0  0  0  0  0  0  0  0
   -5.2684   -3.1824   -0.0883 C   0  0  0  0  0  0  0  0  0  0  0  0
   -4.5938   -1.9718    0.0952 C   0  0  0  0  0  0  0  0  0  0  0  0
   -6.8565    2.9674    2.4816 H   0  0  0  0  0  0  0  0  0  0  0  0
   -5.5073    4.1561    2.3145 H   0  0  0  0  0  0  0  0  0  0  0  0
   -5.1876    2.5047    2.9785 H   0  0  0  0  0  0  0  0  0  0  0  0
   -6.1216    3.1742    0.1222 H   0  0  0  0  0  0  0  0  0  0  0  0
   -5.8584    1.5200    0.7287 H   0  0  0  0  0  0  0  0  0  0  0  0
   -3.7852    0.9861    1.6000 H   0  0  0  0  0  0  0  0  0  0  0  0
   -2.3687    1.9024    1.0365 H   0  0  0  0  0  0  0  0  0  0  0  0
   -2.8209    1.2860   -1.3411 H   0  0  0  0  0  0  0  0  0  0  0  0
   -4.3386    0.5352   -0.8889 H   0  0  0  0  0  0  0  0  0  0  0  0
   -0.5333    0.6021   -2.1094 H   0  0  0  0  0  0  0  0  0  0  0  0
   -0.7928    1.9878   -0.9393 H   0  0  0  0  0  0  0  0  0  0  0  0
    1.5742    1.5621   -2.4166 H   0  0  0  0  0  0  0  0  0  0  0  0
    1.3852    2.5854   -0.9377 H   0  0  0  0  0  0  0  0  0  0  0  0
    2.5220   -0.1905   -1.2498 H   0  0  0  0  0  0  0  0  0  0  0  0
    3.9041   -0.6650    0.5998 H   0  0  0  0  0  0  0  0  0  0  0  0
    4.5883    0.7219    1.4881 H   0  0  0  0  0  0  0  0  0  0  0  0
    5.7670    1.5630   -0.4879 H   0  0  0  0  0  0  0  0  0  0  0  0
    4.9259    0.3834   -1.5463 H   0  0  0  0  0  0  0  0  0  0  0  0
    6.0441   -1.5225   -0.3146 H   0  0  0  0  0  0  0  0  0  0  0  0
    6.5274   -0.4931    1.8772 H   0  0  0  0  0  0  0  0  0  0  0  0
    8.0679   -0.9841    1.1153 H   0  0  0  0  0  0  0  0  0  0  0  0
    7.5842    0.7570    1.1073 H   0  0  0  0  0  0  0  0  0  0  0  0
    7.9623    0.5804   -1.5109 H   0  0  0  0  0  0  0  0  0  0  0  0
    6.9821   -0.6251   -2.4353 H   0  0  0  0  0  0  0  0  0  0  0  0
    8.2858   -1.1899   -1.3380 H   0  0  0  0  0  0  0  0  0  0  0  0
    1.2416    0.3631    1.4592 H   0  0  0  0  0  0  0  0  0  0  0  0
    1.3610   -1.1770    0.5007 H   0  0  0  0  0  0  0  0  0  0  0  0
   -1.7238   -2.7016   -1.5992 H   0  0  0  0  0  0  0  0  0  0  0  0
   -2.9203   -4.8369   -1.9149 H   0  0  0  0  0  0  0  0  0  0  0  0
   -6.2534   -3.3181    0.3410 H   0  0  0  0  0  0  0  0  0  0  0  0
   -5.0621   -1.1897    0.6781 H   0  0  0  0  0  0  0  0  0  0  0  0
  1  2  1  0
  2  3  1  0
  3  4  1  0
  4  5  1  0
  5  6  1  0
  6  7  1  0
  7  8  2  0
  7  9  1  0
  9 10  1  0
 10 11  1  0
 11 12  1  0
 12 13  1  0
 13 14  1  0
 14 15  1  0
 15 16  1  0
 16 17  1  0
 16 18  1  0
 12 19  1  0
  6 20  1  0
 20 21  2  0
 21 22  1  0
 22 23  2  0
 23 24  1  0
 23 25  1  0
 25 26  2  0
 19  9  1  0
 26 20  1  0
  1 27  1  0
  1 28  1  0
  1 29  1  0
  2 30  1  0
  2 31  1  0
  4 32  1  0
  4 33  1  0
  5 34  1  0
  5 35  1  0
 10 36  1  0
 10 37  1  0
 11 38  1  0
 11 39  1  0
 12 40  1  6
 14 41  1  0
 14 42  1  0
 15 43  1  0
 15 44  1  0
 16 45  1  0
 17 46  1  0
 17 47  1  0
 17 48  1  0
 18 49  1  0
 18 50  1  0
 18 51  1  0
 19 52  1  0
 19 53  1  0
 21 54  1  0
 22 55  1  0
 25 56  1  0
 26 57  1  0
M  END
$$$$
mol_84
     RDKit          3D

 61 62  0  0  0  0  0  0  0  0999 V2000
   -5.7039    2.9627   -1.2452 C   0  0  0  0  0  0  0  0  0  0  0  0
   -5.9445    1.2773   -1.8866 S   0  0  0  0  0  0  0  0  0  0  0  0
   -4.2868    0.7533   -1.4436 C   0  0  0  0  0  0  0  0  0  0  0  0
   -3.2231    0.9086   -2.2530 N   0  0  0  0  0  0  0  0  0  0  0  0
   -2.1711    0.4392   -1.5995 N   0  0  0  0  0  0  0  0  0  0  0  0
   -2.6095   -0.0005   -0.4034 C   0  0  0  0  0  0  0  0  0  0  0  0
   -1.6910   -0.5460    0.6540 C   0  0  0  0  0  0  0  0  0  0  0  0
   -1.3310    0.5147    1.7060 C   0  0  0  0  0  0  0  0  0  0  0  0
   -0.4376    1.6352    1.1573 C   0  0  0  0  0  0  0  0  0  0  0  0
    0.9030    1.1325    0.8519 N   0  0  0  0  0  0  0  0  0  0  0  0
    1.4678    1.1744   -0.4719 C   0  0  0  0  0  0  0  0  0  0  0  0
    0.7284    1.4507   -1.4550 O   0  0  0  0  0  0  0  0  0  0  0  0
    2.9392    0.9319   -0.7390 C   0  0  1  0  0  0  0  0  0  0  0  0
    3.8132    0.6776    0.5102 C   0  0  0  0  0  0  0  0  0  0  0  0
    5.2704    0.5234    0.1461 C   0  0  0  0  0  0  0  0  0  0  0  0
    5.9077   -0.7234    0.2651 C   0  0  0  0  0  0  0  0  0  0  0  0
    7.2537   -0.8645   -0.0857 C   0  0  0  0  0  0  0  0  0  0  0  0
    7.9798    0.2397   -0.5509 C   0  0  0  0  0  0  0  0  0  0  0  0
    9.3202    0.1096   -0.9067 O   0  0  0  0  0  0  0  0  0  0  0  0
    7.3535    1.4852   -0.6606 C   0  0  0  0  0  0  0  0  0  0  0  0
    6.0069    1.6289   -0.3133 C   0  0  0  0  0  0  0  0  0  0  0  0
    3.1190   -0.1151   -1.7561 N   0  0  0  0  0  0  0  0  0  0  0  0
    2.7846   -1.5116   -1.6342 C   0  0  0  0  0  0  0  0  0  0  0  0
    2.2026   -2.1123   -0.3910 C   0  0  0  0  0  0  0  0  0  0  0  0
    3.0329   -2.2789   -2.6022 O   0  0  0  0  0  0  0  0  0  0  0  0
   -3.9417    0.1843   -0.2709 N   0  0  0  0  0  0  0  0  0  0  0  0
   -4.8216   -0.1765    0.8468 C   0  0  0  0  0  0  0  0  0  0  0  0
   -5.6578   -1.4313    0.5215 C   0  0  0  0  0  0  0  0  0  0  0  0
   -6.6992   -1.6726    1.6205 C   0  0  0  0  0  0  0  0  0  0  0  0
   -4.7720   -2.6726    0.3521 C   0  0  0  0  0  0  0  0  0  0  0  0
   -5.4713    2.9304   -0.1603 H   0  0  0  0  0  0  0  0  0  0  0  0
   -6.6361    3.5445   -1.3963 H   0  0  0  0  0  0  0  0  0  0  0  0
   -4.8751    3.4621   -1.7905 H   0  0  0  0  0  0  0  0  0  0  0  0
   -2.1793   -1.4057    1.1569 H   0  0  0  0  0  0  0  0  0  0  0  0
   -0.7695   -0.9376    0.1763 H   0  0  0  0  0  0  0  0  0  0  0  0
   -0.8102    0.0180    2.5535 H   0  0  0  0  0  0  0  0  0  0  0  0
   -2.2603    0.9664    2.1141 H   0  0  0  0  0  0  0  0  0  0  0  0
   -0.9114    2.1064    0.2705 H   0  0  0  0  0  0  0  0  0  0  0  0
   -0.3466    2.4272    1.9308 H   0  0  0  0  0  0  0  0  0  0  0  0
    1.4619    0.7672    1.6533 H   0  0  0  0  0  0  0  0  0  0  0  0
    3.3041    1.8869   -1.1794 H   0  0  0  0  0  0  0  0  0  0  0  0
    3.4632   -0.2200    1.0575 H   0  0  0  0  0  0  0  0  0  0  0  0
    3.7183    1.5373    1.2090 H   0  0  0  0  0  0  0  0  0  0  0  0
    5.3629   -1.5884    0.6211 H   0  0  0  0  0  0  0  0  0  0  0  0
    7.7312   -1.8318    0.0047 H   0  0  0  0  0  0  0  0  0  0  0  0
    9.7981   -0.7818   -0.8520 H   0  0  0  0  0  0  0  0  0  0  0  0
    7.9108    2.3425   -1.0163 H   0  0  0  0  0  0  0  0  0  0  0  0
    5.5387    2.6013   -0.4019 H   0  0  0  0  0  0  0  0  0  0  0  0
    3.5169    0.1909   -2.6737 H   0  0  0  0  0  0  0  0  0  0  0  0
    1.5690   -2.9843   -0.6561 H   0  0  0  0  0  0  0  0  0  0  0  0
    3.0192   -2.4621    0.2723 H   0  0  0  0  0  0  0  0  0  0  0  0
    1.5680   -1.3945    0.1548 H   0  0  0  0  0  0  0  0  0  0  0  0
   -5.5000    0.6791    1.0555 H   0  0  0  0  0  0  0  0  0  0  0  0
   -4.2314   -0.3481    1.7714 H   0  0  0  0  0  0  0  0  0  0  0  0
   -6.2056   -1.2649   -0.4309 H   0  0  0  0  0  0  0  0  0  0  0  0
   -7.3242   -2.5565    1.3701 H   0  0  0  0  0  0  0  0  0  0  0  0
   -6.2031   -1.8483    2.5995 H   0  0  0  0  0  0  0  0  0  0  0  0
   -7.3711   -0.7926    1.7119 H   0  0  0  0  0  0  0  0  0  0  0  0
   -4.0571   -2.5286   -0.4848 H   0  0  0  0  0  0  0  0  0  0  0  0
   -5.3983   -3.5581    0.1119 H   0  0  0  0  0  0  0  0  0  0  0  0
   -4.2040   -2.8806    1.2842 H   0  0  0  0  0  0  0  0  0  0  0  0
  1  2  1  0
  2  3  1  0
  3  4  2  0
  4  5  1  0
  5  6  2  0
  6  7  1  0
  7  8  1  0
  8  9  1  0
  9 10  1  0
 10 11  1  0
 11 12  2  0
 11 13  1  0
 13 14  1  0
 14 15  1  0
 15 16  2  0
 16 17  1  0
 17 18  2  0
 18 19  1  0
 18 20  1  0
 20 21  2  0
 13 22  1  0
 22 23  1  0
 23 24  1  0
 23 25  2  0
  6 26  1  0
 26 27  1  0
 27 28  1  0
 28 29  1  0
 28 30  1  0
 26  3  1  0
 21 15  1  0
  1 31  1  0
  1 32  1  0
  1 33  1  0
  7 34  1  0
  7 35  1  0
  8 36  1  0
  8 37  1  0
  9 38  1  0
  9 39  1  0
 10 40  1  0
 13 41  1  6
 14 42  1  0
 14 43  1  0
 16 44  1  0
 17 45  1  0
 19 46  1  0
 20 47  1  0
 21 48  1  0
 22 49  1  0
 24 50  1  0
 24 51  1  0
 24 52  1  0
 27 53  1  0
 27 54  1  0
 28 55  1  0
 29 56  1  0
 29 57  1  0
 29 58  1  0
 30 59  1  0
 30 60  1  0
 30 61  1  0
M  END
$$$$
mol_85
     RDKit          3D

 59 60  0  0  0  0  0  0  0  0999 V2000
    6.3940    4.7004    0.8232 C   0  0  0  0  0  0  0  0  0  0  0  0
    5.6767    3.4067    1.2073 C   0  0  0  0  0  0  0  0  0  0  0  0
    5.3822    2.5484   -0.0278 C   0  0  0  0  0  0  0  0  0  0  0  0
    4.6669    1.2474    0.3641 C   0  0  0  0  0  0  0  0  0  0  0  0
    4.3663    0.3565   -0.8538 C   0  0  0  0  0  0  0  0  0  0  0  0
    3.1027    0.8037   -1.6079 C   0  0  0  0  0  0  0  0  0  0  0  0
    2.9303    0.0874   -2.9609 C   0  0  0  0  0  0  0  0  0  0  0  0
    2.7377   -1.4336   -2.8505 C   0  0  0  0  0  0  0  0  0  0  0  0
    1.4731   -1.7847   -2.1317 C   0  0  0  0  0  0  0  0  0  0  0  0
    0.2392   -1.6062   -2.6561 N   0  0  0  0  0  0  0  0  0  0  0  0
   -0.7405   -1.9947   -1.8427 N   0  0  0  0  0  0  0  0  0  0  0  0
   -0.2862   -2.4898   -0.6698 C   0  0  0  0  0  0  0  0  0  0  0  0
   -1.1341   -2.9273    0.3958 N   0  0  0  0  0  0  0  0  0  0  0  0
   -2.5414   -3.1409    0.2305 C   0  0  0  0  0  0  0  0  0  0  0  0
   -2.9910   -3.4553   -0.9026 O   0  0  0  0  0  0  0  0  0  0  0  0
   -3.4526   -3.1544    1.4372 C   0  0  1  0  0  0  0  0  0  0  0  0
   -3.2340   -2.0010    2.4492 C   0  0  0  0  0  0  0  0  0  0  0  0
   -3.5649   -0.6207    1.9397 C   0  0  0  0  0  0  0  0  0  0  0  0
   -4.7690   -0.0013    2.3147 C   0  0  0  0  0  0  0  0  0  0  0  0
   -5.0736    1.2861    1.8618 C   0  0  0  0  0  0  0  0  0  0  0  0
   -4.1742    1.9724    1.0360 C   0  0  0  0  0  0  0  0  0  0  0  0
   -4.4720    3.2520    0.5696 O   0  0  0  0  0  0  0  0  0  0  0  0
   -2.9632    1.3709    0.6796 C   0  0  0  0  0  0  0  0  0  0  0  0
   -2.6509    0.0891    1.1422 C   0  0  0  0  0  0  0  0  0  0  0  0
   -4.8775   -3.3238    1.0935 N   0  0  0  0  0  0  0  0  0  0  0  0
   -5.7263   -2.4581    0.3081 C   0  0  0  0  0  0  0  0  0  0  0  0
   -5.2238   -1.4773   -0.7112 C   0  0  0  0  0  0  0  0  0  0  0  0
   -6.9756   -2.5861    0.4223 O   0  0  0  0  0  0  0  0  0  0  0  0
    1.3954   -2.4523   -0.5846 S   0  0  0  0  0  0  0  0  0  0  0  0
    7.3627    4.4733    0.3257 H   0  0  0  0  0  0  0  0  0  0  0  0
    6.5933    5.2995    1.7360 H   0  0  0  0  0  0  0  0  0  0  0  0
    5.7618    5.3017    0.1346 H   0  0  0  0  0  0  0  0  0  0  0  0
    6.3167    2.8377    1.9170 H   0  0  0  0  0  0  0  0  0  0  0  0
    4.7221    3.6621    1.7205 H   0  0  0  0  0  0  0  0  0  0  0  0
    6.3375    2.3024   -0.5355 H   0  0  0  0  0  0  0  0  0  0  0  0
    4.7537    3.1298   -0.7300 H   0  0  0  0  0  0  0  0  0  0  0  0
    5.3259    0.6788    1.0573 H   0  0  0  0  0  0  0  0  0  0  0  0
    3.7249    1.4756    0.9097 H   0  0  0  0  0  0  0  0  0  0  0  0
    5.2409    0.3413   -1.5413 H   0  0  0  0  0  0  0  0  0  0  0  0
    4.2110   -0.6798   -0.4825 H   0  0  0  0  0  0  0  0  0  0  0  0
    3.1562    1.8913   -1.8149 H   0  0  0  0  0  0  0  0  0  0  0  0
    2.2094    0.6355   -0.9710 H   0  0  0  0  0  0  0  0  0  0  0  0
    2.0542    0.5262   -3.4864 H   0  0  0  0  0  0  0  0  0  0  0  0
    3.8217    0.2899   -3.5928 H   0  0  0  0  0  0  0  0  0  0  0  0
    2.6898   -1.8649   -3.8725 H   0  0  0  0  0  0  0  0  0  0  0  0
    3.6083   -1.8998   -2.3455 H   0  0  0  0  0  0  0  0  0  0  0  0
   -0.7039   -3.0843    1.3346 H   0  0  0  0  0  0  0  0  0  0  0  0
   -3.1519   -4.0723    1.9920 H   0  0  0  0  0  0  0  0  0  0  0  0
   -3.8551   -2.2193    3.3457 H   0  0  0  0  0  0  0  0  0  0  0  0
   -2.1866   -2.0065    2.8159 H   0  0  0  0  0  0  0  0  0  0  0  0
   -5.4795   -0.5199    2.9465 H   0  0  0  0  0  0  0  0  0  0  0  0
   -6.0097    1.7474    2.1519 H   0  0  0  0  0  0  0  0  0  0  0  0
   -5.3293    3.7244    0.8332 H   0  0  0  0  0  0  0  0  0  0  0  0
   -2.2615    1.9002    0.0482 H   0  0  0  0  0  0  0  0  0  0  0  0
   -1.7022   -0.3500    0.8700 H   0  0  0  0  0  0  0  0  0  0  0  0
   -5.3812   -4.0781    1.6193 H   0  0  0  0  0  0  0  0  0  0  0  0
   -5.4238   -1.8746   -1.7305 H   0  0  0  0  0  0  0  0  0  0  0  0
   -4.1501   -1.2654   -0.6206 H   0  0  0  0  0  0  0  0  0  0  0  0
   -5.7695   -0.5159   -0.5918 H   0  0  0  0  0  0  0  0  0  0  0  0
  1  2  1  0
  2  3  1  0
  3  4  1  0
  4  5  1  0
  5  6  1  0
  6  7  1  0
  7  8  1  0
  8  9  1  0
  9 10  2  0
 10 11  1  0
 11 12  2  0
 12 13  1  0
 13 14  1  0
 14 15  2  0
 14 16  1  0
 16 17  1  0
 17 18  1  0
 18 19  2  0
 19 20  1  0
 20 21  2  0
 21 22  1  0
 21 23  1  0
 23 24  2  0
 16 25  1  0
 25 26  1  0
 26 27  1  0
 26 28  2  0
 12 29  1  0
 29  9  1  0
 24 18  1  0
  1 30  1  0
  1 31  1  0
  1 32  1  0
  2 33  1  0
  2 34  1  0
  3 35  1  0
  3 36  1  0
  4 37  1  0
  4 38  1  0
  5 39  1  0
  5 40  1  0
  6 41  1  0
  6 42  1  0
  7 43  1  0
  7 44  1  0
  8 45  1  0
  8 46  1  0
 13 47  1  0
 16 48  1  1
 17 49  1  0
 17 50  1  0
 19 51  1  0
 20 52  1  0
 22 53  1  0
 23 54  1  0
 24 55  1  0
 25 56  1  0
 27 57  1  0
 27 58  1  0
 27 59  1  0
M  END
$$$$
mol_86
     RDKit          3D

 47 48  0  0  0  0  0  0  0  0999 V2000
   -4.2980   -1.4186   -1.3919 C   0  0  0  0  0  0  0  0  0  0  0  0
   -3.4034   -0.3330   -0.7596 C   0  0  2  0  0  0  0  0  0  0  0  0
   -1.9397   -0.8294   -0.7784 C   0  0  0  0  0  0  0  0  0  0  0  0
   -0.9984    0.2056   -0.1540 C   0  0  2  0  0  0  0  0  0  0  0  0
    0.3625   -0.3353   -0.0931 N   0  0  0  0  0  0  0  0  0  0  0  0
    1.4875    0.3096   -0.7158 C   0  0  0  0  0  0  0  0  0  0  0  0
    1.3641    1.4887   -1.1481 O   0  0  0  0  0  0  0  0  0  0  0  0
    2.7669   -0.3567   -0.8308 N   0  0  0  0  0  0  0  0  0  0  0  0
    2.8815   -1.8257   -0.8224 C   0  0  0  0  0  0  0  0  0  0  0  0
    2.3636   -2.4275   -2.1295 C   0  0  0  0  0  0  0  0  0  0  0  0
    0.9725   -2.2945   -2.2112 O   0  0  0  0  0  0  0  0  0  0  0  0
    3.9768    0.4561   -1.0270 C   0  0  0  0  0  0  0  0  0  0  0  0
    4.2931    1.2163    0.2228 C   0  0  0  0  0  0  0  0  0  0  0  0
    4.2970    2.5998    0.3576 C   0  0  0  0  0  0  0  0  0  0  0  0
    4.6165    3.0248    1.6523 C   0  0  0  0  0  0  0  0  0  0  0  0
    4.8616    1.9758    2.5269 C   0  0  0  0  0  0  0  0  0  0  0  0
    5.3230    2.1432    4.3687 Br  0  0  0  0  0  0  0  0  0  0  0  0
    4.6835    0.5207    1.7048 S   0  0  0  0  0  0  0  0  0  0  0  0
   -1.4768    0.5621    1.2550 C   0  0  0  0  0  0  0  0  0  0  0  0
   -2.9342    1.0351    1.2178 C   0  0  0  0  0  0  0  0  0  0  0  0
   -3.8263    0.0066    0.6314 N   0  0  1  0  0  0  0  0  0  0  0  0
   -5.2168    0.5048    0.6751 C   0  0  0  0  0  0  0  0  0  0  0  0
   -5.3065   -1.0155   -1.6188 H   0  0  0  0  0  0  0  0  0  0  0  0
   -3.8678   -1.7644   -2.3563 H   0  0  0  0  0  0  0  0  0  0  0  0
   -4.3941   -2.2916   -0.7117 H   0  0  0  0  0  0  0  0  0  0  0  0
   -3.4669    0.5738   -1.4054 H   0  0  0  0  0  0  0  0  0  0  0  0
   -1.8634   -1.7896   -0.2200 H   0  0  0  0  0  0  0  0  0  0  0  0
   -1.6192   -1.0146   -1.8274 H   0  0  0  0  0  0  0  0  0  0  0  0
   -1.0258    1.1245   -0.7814 H   0  0  0  0  0  0  0  0  0  0  0  0
    0.5061   -1.2080    0.4595 H   0  0  0  0  0  0  0  0  0  0  0  0
    2.3568   -2.2644    0.0493 H   0  0  0  0  0  0  0  0  0  0  0  0
    3.9443   -2.1298   -0.7047 H   0  0  0  0  0  0  0  0  0  0  0  0
    2.8480   -1.9158   -2.9913 H   0  0  0  0  0  0  0  0  0  0  0  0
    2.6331   -3.5068   -2.1595 H   0  0  0  0  0  0  0  0  0  0  0  0
    0.7085   -2.6881   -3.0830 H   0  0  0  0  0  0  0  0  0  0  0  0
    4.8533   -0.1752   -1.2856 H   0  0  0  0  0  0  0  0  0  0  0  0
    3.8260    1.1536   -1.8793 H   0  0  0  0  0  0  0  0  0  0  0  0
    4.0718    3.2819   -0.4518 H   0  0  0  0  0  0  0  0  0  0  0  0
    4.6656    4.0661    1.9413 H   0  0  0  0  0  0  0  0  0  0  0  0
   -1.3922   -0.3223    1.9248 H   0  0  0  0  0  0  0  0  0  0  0  0
   -0.8379    1.3723    1.6689 H   0  0  0  0  0  0  0  0  0  0  0  0
   -2.9976    1.9848    0.6376 H   0  0  0  0  0  0  0  0  0  0  0  0
   -3.2412    1.2585    2.2647 H   0  0  0  0  0  0  0  0  0  0  0  0
   -3.7766   -0.8536    1.2291 H   0  0  0  0  0  0  0  0  0  0  0  0
   -5.3721    1.3268   -0.0585 H   0  0  0  0  0  0  0  0  0  0  0  0
   -5.9365   -0.3149    0.4669 H   0  0  0  0  0  0  0  0  0  0  0  0
   -5.4721    0.8836    1.6896 H   0  0  0  0  0  0  0  0  0  0  0  0
  1  2  1  0
  2  3  1  0
  3  4  1  0
  4  5  1  0
  5  6  1  0
  6  7  2  0
  6  8  1  0
  8  9  1  0
  9 10  1  0
 10 11  1  0
  8 12  1  0
 12 13  1  0
 13 14  2  0
 14 15  1  0
 15 16  2  0
 16 17  1  0
 16 18  1  0
  4 19  1  0
 19 20  1  0
 20 21  1  0
 21 22  1  0
 21  2  1  0
 18 13  1  0
  1 23  1  0
  1 24  1  0
  1 25  1  0
  2 26  1  6
  3 27  1  0
  3 28  1  0
  4 29  1  6
  5 30  1  0
  9 31  1  0
  9 32  1  0
 10 33  1  0
 10 34  1  0
 11 35  1  0
 12 36  1  0
 12 37  1  0
 14 38  1  0
 15 39  1  0
 19 40  1  0
 19 41  1  0
 20 42  1  0
 20 43  1  0
 21 44  1  1
 22 45  1  0
 22 46  1  0
 22 47  1  0
M  CHG  1  21   1
M  END
$$$$
mol_87
     RDKit          3D

 51 51  0  0  0  0  0  0  0  0999 V2000
   -5.4971    2.5168   -1.4097 C   0  0  0  0  0  0  0  0  0  0  0  0
   -5.4071    1.1258   -0.7534 C   0  0  0  0  0  0  0  0  0  0  0  0
   -5.7614    1.2080    0.7438 C   0  0  0  0  0  0  0  0  0  0  0  0
   -6.4030    0.1844   -1.4477 C   0  0  0  0  0  0  0  0  0  0  0  0
   -4.0976    0.5655   -0.9329 O   0  0  0  0  0  0  0  0  0  0  0  0
   -2.8919    1.1017   -0.4566 C   0  0  0  0  0  0  0  0  0  0  0  0
   -2.8720    2.1802    0.1965 O   0  0  0  0  0  0  0  0  0  0  0  0
   -1.6719    0.4036   -0.7216 N   0  0  0  0  0  0  0  0  0  0  0  0
   -0.3812    0.9063   -0.2474 C   0  0  0  0  0  0  0  0  0  0  0  0
    0.7707   -0.0596   -0.6084 C   0  0  1  0  0  0  0  0  0  0  0  0
    2.1364    0.4964   -0.2772 C   0  0  0  0  0  0  0  0  0  0  0  0
    2.2521    1.6156    0.2952 O   0  0  0  0  0  0  0  0  0  0  0  0
    3.3089   -0.2535   -0.6266 N   0  0  0  0  0  0  0  0  0  0  0  0
    4.6481    0.1331   -0.1892 C   0  0  0  0  0  0  0  0  0  0  0  0
    4.8171   -0.1423    1.3112 C   0  0  0  0  0  0  0  0  0  0  0  0
    6.2610    0.0681    1.7940 C   0  0  0  0  0  0  0  0  0  0  0  0
    6.6862    1.5381    1.7990 C   0  0  0  0  0  0  0  0  0  0  0  0
    5.8466    2.2836    2.6075 F   0  0  0  0  0  0  0  0  0  0  0  0
    0.5791   -1.4341    0.0246 C   0  0  0  0  0  0  0  0  0  0  0  0
    0.6850   -1.6671    1.4221 C   0  0  0  0  0  0  0  0  0  0  0  0
    1.0814   -0.3989    2.5784 Cl  0  0  0  0  0  0  0  0  0  0  0  0
    0.4935   -2.9579    1.9313 C   0  0  0  0  0  0  0  0  0  0  0  0
    0.2019   -4.0214    1.0775 C   0  0  0  0  0  0  0  0  0  0  0  0
    0.1025   -3.8059   -0.2956 C   0  0  0  0  0  0  0  0  0  0  0  0
    0.2912   -2.5256   -0.8193 C   0  0  0  0  0  0  0  0  0  0  0  0
   -5.1664    2.4627   -2.4691 H   0  0  0  0  0  0  0  0  0  0  0  0
   -6.5422    2.8943   -1.3834 H   0  0  0  0  0  0  0  0  0  0  0  0
   -4.8598    3.2557   -0.8827 H   0  0  0  0  0  0  0  0  0  0  0  0
   -5.6198    0.2171    1.2260 H   0  0  0  0  0  0  0  0  0  0  0  0
   -5.1240    1.9466    1.2711 H   0  0  0  0  0  0  0  0  0  0  0  0
   -6.8198    1.5198    0.8783 H   0  0  0  0  0  0  0  0  0  0  0  0
   -6.1614    0.0976   -2.5291 H   0  0  0  0  0  0  0  0  0  0  0  0
   -7.4444    0.5601   -1.3471 H   0  0  0  0  0  0  0  0  0  0  0  0
   -6.3489   -0.8316   -1.0003 H   0  0  0  0  0  0  0  0  0  0  0  0
   -1.7256   -0.4808   -1.2754 H   0  0  0  0  0  0  0  0  0  0  0  0
   -0.1923    1.8930   -0.7244 H   0  0  0  0  0  0  0  0  0  0  0  0
   -0.4321    1.0647    0.8490 H   0  0  0  0  0  0  0  0  0  0  0  0
    0.7531   -0.1578   -1.7169 H   0  0  0  0  0  0  0  0  0  0  0  0
    3.2063   -1.1065   -1.2217 H   0  0  0  0  0  0  0  0  0  0  0  0
    4.8143    1.2073   -0.4164 H   0  0  0  0  0  0  0  0  0  0  0  0
    5.3974   -0.4594   -0.7582 H   0  0  0  0  0  0  0  0  0  0  0  0
    4.1254    0.4990    1.8982 H   0  0  0  0  0  0  0  0  0  0  0  0
    4.5372   -1.2003    1.5089 H   0  0  0  0  0  0  0  0  0  0  0  0
    6.3468   -0.3239    2.8307 H   0  0  0  0  0  0  0  0  0  0  0  0
    6.9612   -0.5164    1.1584 H   0  0  0  0  0  0  0  0  0  0  0  0
    7.7212    1.6172    2.1934 H   0  0  0  0  0  0  0  0  0  0  0  0
    6.6792    1.9557    0.7712 H   0  0  0  0  0  0  0  0  0  0  0  0
    0.5753   -3.1399    2.9956 H   0  0  0  0  0  0  0  0  0  0  0  0
    0.0561   -5.0152    1.4810 H   0  0  0  0  0  0  0  0  0  0  0  0
   -0.1215   -4.6328   -0.9571 H   0  0  0  0  0  0  0  0  0  0  0  0
    0.2063   -2.3873   -1.8900 H   0  0  0  0  0  0  0  0  0  0  0  0
  1  2  1  0
  2  3  1  0
  2  4  1  0
  2  5  1  0
  5  6  1  0
  6  7  2  0
  6  8  1  0
  8  9  1  0
  9 10  1  0
 10 11  1  0
 11 12  2  0
 11 13  1  0
 13 14  1  0
 14 15  1  0
 15 16  1  0
 16 17  1  0
 17 18  1  0
 10 19  1  0
 19 20  2  0
 20 21  1  0
 20 22  1  0
 22 23  2  0
 23 24  1  0
 24 25  2  0
 25 19  1  0
  1 26  1  0
  1 27  1  0
  1 28  1  0
  3 29  1  0
  3 30  1  0
  3 31  1  0
  4 32  1  0
  4 33  1  0
  4 34  1  0
  8 35  1  0
  9 36  1  0
  9 37  1  0
 10 38  1  6
 13 39  1  0
 14 40  1  0
 14 41  1  0
 15 42  1  0
 15 43  1  0
 16 44  1  0
 16 45  1  0
 17 46  1  0
 17 47  1  0
 22 48  1  0
 23 49  1  0
 24 50  1  0
 25 51  1  0
M  END
$$$$
mol_88
     RDKit          3D

 36 36  0  0  0  0  0  0  0  0999 V2000
    5.6774   -2.3278    0.3626 C   0  0  0  0  0  0  0  0  0  0  0  0
    4.5961   -1.3319    0.6339 C   0  0  0  0  0  0  0  0  0  0  0  0
    4.0156   -1.3501    1.7525 O   0  0  0  0  0  0  0  0  0  0  0  0
    4.2561   -0.3432   -0.3516 N   0  0  0  0  0  0  0  0  0  0  0  0
    3.0962    0.5034   -0.2751 C   0  0  0  0  0  0  0  0  0  0  0  0
    3.1663    1.8106   -0.7778 C   0  0  0  0  0  0  0  0  0  0  0  0
    2.0535    2.6519   -0.7170 C   0  0  0  0  0  0  0  0  0  0  0  0
    0.8525    2.1880   -0.1766 C   0  0  0  0  0  0  0  0  0  0  0  0
    0.7455    0.8688    0.2858 C   0  0  0  0  0  0  0  0  0  0  0  0
   -0.5020    0.4167    0.8385 N   0  0  0  0  0  0  0  0  0  0  0  0
   -1.0208   -0.9129    0.6698 C   0  0  0  0  0  0  0  0  0  0  0  0
   -0.4683   -1.7219   -0.1239 O   0  0  0  0  0  0  0  0  0  0  0  0
   -2.2567   -1.3385    1.4018 C   0  0  0  0  0  0  0  0  0  0  0  0
   -3.6217   -1.6516    0.2264 S   0  0  0  0  0  0  0  0  0  0  0  0
   -4.0881    0.0989   -0.0561 C   0  0  0  0  0  0  0  0  0  0  0  0
   -4.6545    0.2427   -1.4680 C   0  0  0  0  0  0  0  0  0  0  0  0
   -5.1204    0.5398    0.9832 C   0  0  0  0  0  0  0  0  0  0  0  0
    1.8764    0.0324    0.2458 C   0  0  0  0  0  0  0  0  0  0  0  0
    5.2645   -3.3549    0.4444 H   0  0  0  0  0  0  0  0  0  0  0  0
    6.0957   -2.1924   -0.6567 H   0  0  0  0  0  0  0  0  0  0  0  0
    6.4933   -2.2025    1.1048 H   0  0  0  0  0  0  0  0  0  0  0  0
    4.9396   -0.1665   -1.1225 H   0  0  0  0  0  0  0  0  0  0  0  0
    4.0914    2.1831   -1.1996 H   0  0  0  0  0  0  0  0  0  0  0  0
    2.1220    3.6657   -1.0898 H   0  0  0  0  0  0  0  0  0  0  0  0
   -0.0031    2.8505   -0.1357 H   0  0  0  0  0  0  0  0  0  0  0  0
   -1.1120    1.1250    1.3062 H   0  0  0  0  0  0  0  0  0  0  0  0
   -2.0409   -2.2830    1.9434 H   0  0  0  0  0  0  0  0  0  0  0  0
   -2.5533   -0.5820    2.1573 H   0  0  0  0  0  0  0  0  0  0  0  0
   -3.1966    0.7560    0.0193 H   0  0  0  0  0  0  0  0  0  0  0  0
   -5.5570   -0.3932   -1.5949 H   0  0  0  0  0  0  0  0  0  0  0  0
   -4.9273    1.3011   -1.6667 H   0  0  0  0  0  0  0  0  0  0  0  0
   -3.8910   -0.0656   -2.2136 H   0  0  0  0  0  0  0  0  0  0  0  0
   -4.6969    0.4606    2.0057 H   0  0  0  0  0  0  0  0  0  0  0  0
   -6.0296   -0.0961    0.9237 H   0  0  0  0  0  0  0  0  0  0  0  0
   -5.4092    1.5985    0.8107 H   0  0  0  0  0  0  0  0  0  0  0  0
    1.8074   -0.9796    0.6184 H   0  0  0  0  0  0  0  0  0  0  0  0
  1  2  1  0
  2  3  2  0
  2  4  1  0
  4  5  1  0
  5  6  2  0
  6  7  1  0
  7  8  2  0
  8  9  1  0
  9 10  1  0
 10 11  1  0
 11 12  2  0
 11 13  1  0
 13 14  1  0
 14 15  1  0
 15 16  1  0
 15 17  1  0
  9 18  2  0
 18  5  1  0
  1 19  1  0
  1 20  1  0
  1 21  1  0
  4 22  1  0
  6 23  1  0
  7 24  1  0
  8 25  1  0
 10 26  1  0
 13 27  1  0
 13 28  1  0
 15 29  1  0
 16 30  1  0
 16 31  1  0
 16 32  1  0
 17 33  1  0
 17 34  1  0
 17 35  1  0
 18 36  1  0
M  END
$$$$
mol_89
     RDKit          3D

 42 42  0  0  0  0  0  0  0  0999 V2000
   -3.5322   -1.4471    2.2078 C   0  0  0  0  0  0  0  0  0  0  0  0
   -2.9782   -1.6343    1.0037 C   0  0  0  0  0  0  0  0  0  0  0  0
   -3.8490   -2.0568   -0.1630 C   0  0  0  0  0  0  0  0  0  0  0  0
   -4.3603   -0.8731   -1.0174 C   0  0  0  0  0  0  0  0  0  0  0  0
   -3.2168   -0.0959   -1.6844 C   0  0  0  0  0  0  0  0  0  0  0  0
   -5.2657    0.0720   -0.2163 C   0  0  0  0  0  0  0  0  0  0  0  0
   -1.5219   -1.4418    0.7990 C   0  0  0  0  0  0  0  0  0  0  0  0
   -0.9321   -2.1176   -0.0877 O   0  0  0  0  0  0  0  0  0  0  0  0
   -0.7838   -0.4725    1.5626 N   0  0  0  0  0  0  0  0  0  0  0  0
    0.6397   -0.2268    1.3426 C   0  0  0  0  0  0  0  0  0  0  0  0
    0.8474    0.5937    0.0649 C   0  0  0  0  0  0  0  0  0  0  0  0
    2.3070    0.8997   -0.1505 C   0  0  0  0  0  0  0  0  0  0  0  0
    3.1963   -0.1232   -0.5158 C   0  0  0  0  0  0  0  0  0  0  0  0
    4.5552    0.1540   -0.7228 C   0  0  0  0  0  0  0  0  0  0  0  0
    5.4300   -0.8712   -1.0825 O   0  0  0  0  0  0  0  0  0  0  0  0
    5.0348    1.4672   -0.5680 C   0  0  0  0  0  0  0  0  0  0  0  0
    6.4898    1.7723   -0.7852 C   0  0  0  0  0  0  0  0  0  0  0  0
    4.1431    2.4896   -0.2064 C   0  0  0  0  0  0  0  0  0  0  0  0
    2.7900    2.2086   -0.0015 C   0  0  0  0  0  0  0  0  0  0  0  0
   -2.9389   -1.1876    3.0740 H   0  0  0  0  0  0  0  0  0  0  0  0
   -4.5965   -1.5814    2.3558 H   0  0  0  0  0  0  0  0  0  0  0  0
   -4.7228   -2.6396    0.2050 H   0  0  0  0  0  0  0  0  0  0  0  0
   -3.2849   -2.7565   -0.8168 H   0  0  0  0  0  0  0  0  0  0  0  0
   -4.9799   -1.3080   -1.8330 H   0  0  0  0  0  0  0  0  0  0  0  0
   -2.6177    0.4583   -0.9312 H   0  0  0  0  0  0  0  0  0  0  0  0
   -2.5504   -0.7904   -2.2388 H   0  0  0  0  0  0  0  0  0  0  0  0
   -3.6305    0.6378   -2.4087 H   0  0  0  0  0  0  0  0  0  0  0  0
   -6.0872   -0.4995    0.2657 H   0  0  0  0  0  0  0  0  0  0  0  0
   -4.6883    0.6069    0.5673 H   0  0  0  0  0  0  0  0  0  0  0  0
   -5.7203    0.8262   -0.8936 H   0  0  0  0  0  0  0  0  0  0  0  0
   -1.2736    0.1206    2.2686 H   0  0  0  0  0  0  0  0  0  0  0  0
    1.1824   -1.1954    1.2853 H   0  0  0  0  0  0  0  0  0  0  0  0
    1.0469    0.3412    2.2079 H   0  0  0  0  0  0  0  0  0  0  0  0
    0.4594    0.0398   -0.8168 H   0  0  0  0  0  0  0  0  0  0  0  0
    0.2603    1.5349    0.1472 H   0  0  0  0  0  0  0  0  0  0  0  0
    2.8320   -1.1354   -0.6427 H   0  0  0  0  0  0  0  0  0  0  0  0
    5.1101   -1.8254   -1.2004 H   0  0  0  0  0  0  0  0  0  0  0  0
    6.7815    1.4884   -1.8183 H   0  0  0  0  0  0  0  0  0  0  0  0
    7.1040    1.1956   -0.0620 H   0  0  0  0  0  0  0  0  0  0  0  0
    6.7066    2.8528   -0.6459 H   0  0  0  0  0  0  0  0  0  0  0  0
    4.4936    3.5067   -0.0822 H   0  0  0  0  0  0  0  0  0  0  0  0
    2.1210    3.0129    0.2783 H   0  0  0  0  0  0  0  0  0  0  0  0
  1  2  2  3
  2  3  1  0
  3  4  1  0
  4  5  1  0
  4  6  1  0
  2  7  1  0
  7  8  2  0
  7  9  1  0
  9 10  1  0
 10 11  1  0
 11 12  1  0
 12 13  2  0
 13 14  1  0
 14 15  1  0
 14 16  2  0
 16 17  1  0
 16 18  1  0
 18 19  2  0
 19 12  1  0
  1 20  1  0
  1 21  1  0
  3 22  1  0
  3 23  1  0
  4 24  1  0
  5 25  1  0
  5 26  1  0
  5 27  1  0
  6 28  1  0
  6 29  1  0
  6 30  1  0
  9 31  1  0
 10 32  1  0
 10 33  1  0
 11 34  1  0
 11 35  1  0
 13 36  1  0
 15 37  1  0
 17 38  1  0
 17 39  1  0
 17 40  1  0
 18 41  1  0
 19 42  1  0
M  END
$$$$
mol_90
     RDKit          3D

 35 35  0  0  0  0  0  0  0  0999 V2000
    0.2546   -1.6932   -0.8262 O   0  0  0  0  0  0  0  0  0  0  0  0
   -0.2217   -0.4733   -0.3131 C   0  0  1  0  0  0  0  0  0  0  0  0
   -1.7138   -0.5985    0.0391 C   0  0  0  0  0  0  0  0  0  0  0  0
   -2.4575    1.0462    0.3421 S   0  0  0  0  0  0  0  0  0  0  0  0
   -4.1527    0.4394    0.6585 C   0  0  0  0  0  0  0  0  0  0  0  0
   -4.9411    0.3400   -0.6490 C   0  0  0  0  0  0  0  0  0  0  0  0
   -6.3749   -0.1171   -0.3940 C   0  0  0  0  0  0  0  0  0  0  0  0
   -7.0581   -0.1947   -1.5937 F   0  0  0  0  0  0  0  0  0  0  0  0
    0.6218   -0.0315    0.9027 C   0  0  0  0  0  0  0  0  0  0  0  0
    2.0795    0.1063    0.5415 C   0  0  0  0  0  0  0  0  0  0  0  0
    2.5058    1.1531   -0.2905 C   0  0  0  0  0  0  0  0  0  0  0  0
    3.8561    1.2847   -0.6264 C   0  0  0  0  0  0  0  0  0  0  0  0
    4.8079    0.3840   -0.1183 C   0  0  0  0  0  0  0  0  0  0  0  0
    6.2568    0.4958   -0.5213 C   0  0  0  0  0  0  0  0  0  0  0  0
    6.6000    1.8172   -0.7499 F   0  0  0  0  0  0  0  0  0  0  0  0
    7.0809    0.0015    0.4750 F   0  0  0  0  0  0  0  0  0  0  0  0
    6.4643   -0.2303   -1.6790 F   0  0  0  0  0  0  0  0  0  0  0  0
    4.3754   -0.6763    0.6967 C   0  0  0  0  0  0  0  0  0  0  0  0
    3.0249   -0.8073    1.0327 C   0  0  0  0  0  0  0  0  0  0  0  0
    0.1626   -2.3759   -0.1105 H   0  0  0  0  0  0  0  0  0  0  0  0
   -0.1241    0.2893   -1.1163 H   0  0  0  0  0  0  0  0  0  0  0  0
   -1.8386   -1.2396    0.9384 H   0  0  0  0  0  0  0  0  0  0  0  0
   -2.2416   -1.0802   -0.8105 H   0  0  0  0  0  0  0  0  0  0  0  0
   -4.6517    1.1684    1.3319 H   0  0  0  0  0  0  0  0  0  0  0  0
   -4.1304   -0.5434    1.1766 H   0  0  0  0  0  0  0  0  0  0  0  0
   -4.9604    1.3346   -1.1454 H   0  0  0  0  0  0  0  0  0  0  0  0
   -4.4499   -0.3839   -1.3329 H   0  0  0  0  0  0  0  0  0  0  0  0
   -6.3781   -1.1189    0.0862 H   0  0  0  0  0  0  0  0  0  0  0  0
   -6.8961    0.6056    0.2695 H   0  0  0  0  0  0  0  0  0  0  0  0
    0.4949   -0.7702    1.7247 H   0  0  0  0  0  0  0  0  0  0  0  0
    0.2601    0.9461    1.2875 H   0  0  0  0  0  0  0  0  0  0  0  0
    1.7910    1.8667   -0.6813 H   0  0  0  0  0  0  0  0  0  0  0  0
    4.1560    2.0906   -1.2844 H   0  0  0  0  0  0  0  0  0  0  0  0
    5.0817   -1.4060    1.0725 H   0  0  0  0  0  0  0  0  0  0  0  0
    2.7165   -1.6292    1.6670 H   0  0  0  0  0  0  0  0  0  0  0  0
  1  2  1  0
  2  3  1  0
  3  4  1  0
  4  5  1  0
  5  6  1  0
  6  7  1  0
  7  8  1  0
  2  9  1  0
  9 10  1  0
 10 11  2  0
 11 12  1  0
 12 13  2  0
 13 14  1  0
 14 15  1  0
 14 16  1  0
 14 17  1  0
 13 18  1  0
 18 19  2  0
 19 10  1  0
  1 20  1  0
  2 21  1  6
  3 22  1  0
  3 23  1  0
  5 24  1  0
  5 25  1  0
  6 26  1  0
  6 27  1  0
  7 28  1  0
  7 29  1  0
  9 30  1  0
  9 31  1  0
 11 32  1  0
 12 33  1  0
 18 34  1  0
 19 35  1  0
M  END
$$$$
mol_91
     RDKit          3D

 38 38  0  0  0  0  0  0  0  0999 V2000
   -4.5847    0.7753   -1.1683 C   0  0  0  0  0  0  0  0  0  0  0  0
   -4.3073   -0.7256   -1.0901 C   0  0  0  0  0  0  0  0  0  0  0  0
   -4.3581   -1.2514    0.3514 C   0  0  0  0  0  0  0  0  0  0  0  0
   -3.2411   -0.6942    1.1939 C   0  0  0  0  0  0  0  0  0  0  0  0
   -3.5392    0.2063    2.3607 C   0  0  0  0  0  0  0  0  0  0  0  0
   -2.0161   -1.0023    0.8951 N   0  0  0  0  0  0  0  0  0  0  0  0
   -0.9459   -0.5239    1.6198 O   0  0  0  0  0  0  0  0  0  0  0  0
    0.3867   -0.8471    1.2469 C   0  0  0  0  0  0  0  0  0  0  0  0
    0.7754   -0.1157   -0.0428 C   0  0  2  0  0  0  0  0  0  0  0  0
    0.0049   -0.5722   -1.0991 F   0  0  0  0  0  0  0  0  0  0  0  0
    2.2361   -0.3220   -0.3628 C   0  0  0  0  0  0  0  0  0  0  0  0
    3.1376    0.7553   -0.3000 C   0  0  0  0  0  0  0  0  0  0  0  0
    4.5013    0.5649   -0.6003 C   0  0  0  0  0  0  0  0  0  0  0  0
    5.4367    1.6093   -0.5478 O   0  0  0  0  0  0  0  0  0  0  0  0
    5.1242    2.9526   -0.1937 C   0  0  0  0  0  0  0  0  0  0  0  0
    4.9501   -0.7093   -0.9652 C   0  0  0  0  0  0  0  0  0  0  0  0
    4.0589   -1.7822   -1.0327 C   0  0  0  0  0  0  0  0  0  0  0  0
    2.7082   -1.5918   -0.7347 C   0  0  0  0  0  0  0  0  0  0  0  0
   -5.5729    1.0097   -0.7184 H   0  0  0  0  0  0  0  0  0  0  0  0
   -4.5937    1.0955   -2.2314 H   0  0  0  0  0  0  0  0  0  0  0  0
   -3.7943    1.3461   -0.6365 H   0  0  0  0  0  0  0  0  0  0  0  0
   -3.3158   -0.9440   -1.5435 H   0  0  0  0  0  0  0  0  0  0  0  0
   -5.0765   -1.2588   -1.6898 H   0  0  0  0  0  0  0  0  0  0  0  0
   -4.2686   -2.3590    0.3344 H   0  0  0  0  0  0  0  0  0  0  0  0
   -5.3496   -1.0133    0.7938 H   0  0  0  0  0  0  0  0  0  0  0  0
   -3.1607   -0.2566    3.2961 H   0  0  0  0  0  0  0  0  0  0  0  0
   -4.6294    0.3827    2.4709 H   0  0  0  0  0  0  0  0  0  0  0  0
   -3.0412    1.1872    2.2107 H   0  0  0  0  0  0  0  0  0  0  0  0
    1.0653   -0.5316    2.0683 H   0  0  0  0  0  0  0  0  0  0  0  0
    0.4792   -1.9475    1.1192 H   0  0  0  0  0  0  0  0  0  0  0  0
    0.5596    0.9668    0.0929 H   0  0  0  0  0  0  0  0  0  0  0  0
    2.7741    1.7331   -0.0143 H   0  0  0  0  0  0  0  0  0  0  0  0
    4.7184    2.9908    0.8393 H   0  0  0  0  0  0  0  0  0  0  0  0
    6.0496    3.5627   -0.2344 H   0  0  0  0  0  0  0  0  0  0  0  0
    4.3882    3.3750   -0.9100 H   0  0  0  0  0  0  0  0  0  0  0  0
    5.9953   -0.8678   -1.1985 H   0  0  0  0  0  0  0  0  0  0  0  0
    4.4158   -2.7634   -1.3181 H   0  0  0  0  0  0  0  0  0  0  0  0
    2.0295   -2.4334   -0.7969 H   0  0  0  0  0  0  0  0  0  0  0  0
  1  2  1  0
  2  3  1  0
  3  4  1  0
  4  5  1  0
  4  6  2  0
  6  7  1  0
  7  8  1  0
  8  9  1  0
  9 10  1  0
  9 11  1  0
 11 12  2  0
 12 13  1  0
 13 14  1  0
 14 15  1  0
 13 16  2  0
 16 17  1  0
 17 18  2  0
 18 11  1  0
  1 19  1  0
  1 20  1  0
  1 21  1  0
  2 22  1  0
  2 23  1  0
  3 24  1  0
  3 25  1  0
  5 26  1  0
  5 27  1  0
  5 28  1  0
  8 29  1  0
  8 30  1  0
  9 31  1  1
 12 32  1  0
 15 33  1  0
 15 34  1  0
 15 35  1  0
 16 36  1  0
 17 37  1  0
 18 38  1  0
M  END
$$$$
mol_92
     RDKit          3D

 38 38  0  0  0  0  0  0  0  0999 V2000
    4.7077   -1.5780    1.1621 C   0  0  0  0  0  0  0  0  0  0  0  0
    3.6848   -0.9157    0.2439 C   0  0  0  0  0  0  0  0  0  0  0  0
    3.6852    0.6068    0.4225 C   0  0  0  0  0  0  0  0  0  0  0  0
    2.6533    1.2516   -0.4600 C   0  0  0  0  0  0  0  0  0  0  0  0
    2.8503    1.2955   -1.9497 C   0  0  0  0  0  0  0  0  0  0  0  0
    1.5962    1.7732    0.0827 N   0  0  0  0  0  0  0  0  0  0  0  0
    0.6140    2.3791   -0.6709 O   0  0  0  0  0  0  0  0  0  0  0  0
   -0.5546    2.8983   -0.0525 C   0  0  0  0  0  0  0  0  0  0  0  0
   -1.3695    1.7795    0.5362 C   0  0  0  0  0  0  0  0  0  0  0  0
   -1.6010    1.7134    1.9184 C   0  0  0  0  0  0  0  0  0  0  0  0
   -2.3409    0.6582    2.4565 C   0  0  0  0  0  0  0  0  0  0  0  0
   -2.8622   -0.3333    1.6213 C   0  0  0  0  0  0  0  0  0  0  0  0
   -2.6582   -0.2693    0.2313 C   0  0  0  0  0  0  0  0  0  0  0  0
   -3.1606   -1.2896   -0.6489 N   0  0  0  0  0  0  0  0  0  0  0  0
   -4.3953   -1.9937   -0.4449 C   0  0  0  0  0  0  0  0  0  0  0  0
   -4.7319   -3.1681   -1.3047 C   0  0  0  0  0  0  0  0  0  0  0  0
   -5.2391   -1.5826    0.3964 O   0  0  0  0  0  0  0  0  0  0  0  0
   -1.8951    0.7819   -0.3000 C   0  0  0  0  0  0  0  0  0  0  0  0
    4.6860   -2.6778    1.0105 H   0  0  0  0  0  0  0  0  0  0  0  0
    5.7294   -1.2075    0.9319 H   0  0  0  0  0  0  0  0  0  0  0  0
    4.4695   -1.3618    2.2254 H   0  0  0  0  0  0  0  0  0  0  0  0
    2.6753   -1.3186    0.4797 H   0  0  0  0  0  0  0  0  0  0  0  0
    3.9292   -1.1763   -0.8086 H   0  0  0  0  0  0  0  0  0  0  0  0
    4.6866    1.0217    0.1759 H   0  0  0  0  0  0  0  0  0  0  0  0
    3.4707    0.8479    1.4876 H   0  0  0  0  0  0  0  0  0  0  0  0
    3.8229    0.8436   -2.2373 H   0  0  0  0  0  0  0  0  0  0  0  0
    2.8388    2.3494   -2.2985 H   0  0  0  0  0  0  0  0  0  0  0  0
    2.0343    0.7339   -2.4511 H   0  0  0  0  0  0  0  0  0  0  0  0
   -1.1617    3.4297   -0.8152 H   0  0  0  0  0  0  0  0  0  0  0  0
   -0.2597    3.6383    0.7228 H   0  0  0  0  0  0  0  0  0  0  0  0
   -1.2001    2.4701    2.5812 H   0  0  0  0  0  0  0  0  0  0  0  0
   -2.5021    0.6027    3.5254 H   0  0  0  0  0  0  0  0  0  0  0  0
   -3.3996   -1.1598    2.0662 H   0  0  0  0  0  0  0  0  0  0  0  0
   -2.6385   -1.4746   -1.5355 H   0  0  0  0  0  0  0  0  0  0  0  0
   -3.8211   -3.7754   -1.4891 H   0  0  0  0  0  0  0  0  0  0  0  0
   -5.1366   -2.8119   -2.2747 H   0  0  0  0  0  0  0  0  0  0  0  0
   -5.4904   -3.8077   -0.8054 H   0  0  0  0  0  0  0  0  0  0  0  0
   -1.7159    0.8268   -1.3678 H   0  0  0  0  0  0  0  0  0  0  0  0
  1  2  1  0
  2  3  1  0
  3  4  1  0
  4  5  1  0
  4  6  2  0
  6  7  1  0
  7  8  1  0
  8  9  1  0
  9 10  2  0
 10 11  1  0
 11 12  2  0
 12 13  1  0
 13 14  1  0
 14 15  1  0
 15 16  1  0
 15 17  2  0
 13 18  2  0
 18  9  1  0
  1 19  1  0
  1 20  1  0
  1 21  1  0
  2 22  1  0
  2 23  1  0
  3 24  1  0
  3 25  1  0
  5 26  1  0
  5 27  1  0
  5 28  1  0
  8 29  1  0
  8 30  1  0
 10 31  1  0
 11 32  1  0
 12 33  1  0
 14 34  1  0
 16 35  1  0
 16 36  1  0
 16 37  1  0
 18 38  1  0
M  END
$$$$
mol_93
     RDKit          3D

 41 43  0  0  0  0  0  0  0  0999 V2000
    0.5250    3.4865   -0.6903 C   0  0  0  0  0  0  0  0  0  0  0  0
    0.2240    2.2859    0.1484 C   0  0  0  0  0  0  0  0  0  0  0  0
   -0.0997    2.4528    1.3583 O   0  0  0  0  0  0  0  0  0  0  0  0
    0.3059    0.9630   -0.4207 N   0  0  0  0  0  0  0  0  0  0  0  0
    0.0462   -0.2804    0.3163 C   0  0  1  0  0  0  0  0  0  0  0  0
    1.0645   -0.4920    1.4582 C   0  0  0  0  0  0  0  0  0  0  0  0
    2.4853   -0.4982    0.9489 C   0  0  0  0  0  0  0  0  0  0  0  0
    3.3705    0.5402    1.2982 C   0  0  0  0  0  0  0  0  0  0  0  0
    4.6886    0.5298    0.8333 C   0  0  0  0  0  0  0  0  0  0  0  0
    5.1374   -0.5187    0.0164 C   0  0  0  0  0  0  0  0  0  0  0  0
    6.4502   -0.5392   -0.4495 O   0  0  0  0  0  0  0  0  0  0  0  0
    4.2599   -1.5569   -0.3331 C   0  0  0  0  0  0  0  0  0  0  0  0
    2.9423   -1.5503    0.1326 C   0  0  0  0  0  0  0  0  0  0  0  0
   -1.3834   -0.3169    0.8095 C   0  0  0  0  0  0  0  0  0  0  0  0
   -1.6646    0.1606    1.9420 O   0  0  0  0  0  0  0  0  0  0  0  0
   -2.4315   -0.8763   -0.0054 N   0  0  0  0  0  0  0  0  0  0  0  0
   -2.2876   -1.4557   -1.3483 C   0  0  0  0  0  0  0  0  0  0  0  0
   -3.7330   -1.7996   -1.8112 C   0  0  0  0  0  0  0  0  0  0  0  0
   -4.5555   -1.3621   -0.7007 N   0  0  0  0  0  0  0  0  0  0  0  0
   -5.7409   -0.7814   -0.7338 N   0  0  0  0  0  0  0  0  0  0  0  0
   -5.7867    0.0527    0.3328 C   0  0  0  0  0  0  0  0  0  0  0  0
   -4.5545    0.0682    0.9791 C   0  0  0  0  0  0  0  0  0  0  0  0
   -3.8200   -0.8583    0.2694 C   0  0  0  0  0  0  0  0  0  0  0  0
   -0.3583    4.1539   -0.7132 H   0  0  0  0  0  0  0  0  0  0  0  0
    0.7813    3.1961   -1.7339 H   0  0  0  0  0  0  0  0  0  0  0  0
    1.3817    4.0340   -0.2536 H   0  0  0  0  0  0  0  0  0  0  0  0
    0.5670    0.8707   -1.4304 H   0  0  0  0  0  0  0  0  0  0  0  0
    0.1805   -1.1286   -0.3884 H   0  0  0  0  0  0  0  0  0  0  0  0
    0.9392    0.2950    2.2328 H   0  0  0  0  0  0  0  0  0  0  0  0
    0.8634   -1.4639    1.9582 H   0  0  0  0  0  0  0  0  0  0  0  0
    3.0410    1.3613    1.9268 H   0  0  0  0  0  0  0  0  0  0  0  0
    5.3614    1.3354    1.1121 H   0  0  0  0  0  0  0  0  0  0  0  0
    7.1074    0.1984   -0.2206 H   0  0  0  0  0  0  0  0  0  0  0  0
    4.6015   -2.3715   -0.9627 H   0  0  0  0  0  0  0  0  0  0  0  0
    2.2800   -2.3655   -0.1411 H   0  0  0  0  0  0  0  0  0  0  0  0
   -1.8261   -0.7129   -2.0360 H   0  0  0  0  0  0  0  0  0  0  0  0
   -1.6659   -2.3755   -1.3018 H   0  0  0  0  0  0  0  0  0  0  0  0
   -4.0043   -1.2526   -2.7413 H   0  0  0  0  0  0  0  0  0  0  0  0
   -3.8513   -2.8956   -1.9549 H   0  0  0  0  0  0  0  0  0  0  0  0
   -6.6240    0.7003    0.5602 H   0  0  0  0  0  0  0  0  0  0  0  0
   -4.2171    0.7674    1.7375 H   0  0  0  0  0  0  0  0  0  0  0  0
  1  2  1  0
  2  3  2  0
  2  4  1  0
  4  5  1  0
  5  6  1  0
  6  7  1  0
  7  8  2  0
  8  9  1  0
  9 10  2  0
 10 11  1  0
 10 12  1  0
 12 13  2  0
  5 14  1  0
 14 15  2  0
 14 16  1  0
 16 17  1  0
 17 18  1  0
 18 19  1  0
 19 20  1  0
 20 21  2  0
 21 22  1  0
 22 23  2  0
 13  7  1  0
 23 16  1  0
 23 19  1  0
  1 24  1  0
  1 25  1  0
  1 26  1  0
  4 27  1  0
  5 28  1  6
  6 29  1  0
  6 30  1  0
  8 31  1  0
  9 32  1  0
 11 33  1  0
 12 34  1  0
 13 35  1  0
 17 36  1  0
 17 37  1  0
 18 38  1  0
 18 39  1  0
 21 40  1  0
 22 41  1  0
M  END
$$$$
mol_94
     RDKit          3D

 39 39  0  0  0  0  0  0  0  0999 V2000
   -1.7870   -3.5231    0.9304 C   0  0  0  0  0  0  0  0  0  0  0  0
   -1.3258   -2.2367    0.5310 O   0  0  0  0  0  0  0  0  0  0  0  0
   -2.1465   -1.1076    0.3674 C   0  0  0  0  0  0  0  0  0  0  0  0
   -1.5639    0.1160   -0.0397 C   0  0  0  0  0  0  0  0  0  0  0  0
   -0.0748    0.2168   -0.3181 C   0  0  1  0  0  0  0  0  0  0  0  0
    0.1800    0.0234   -1.8200 C   0  0  0  0  0  0  0  0  0  0  0  0
    1.6087    0.1092   -2.1183 N   0  0  0  0  0  0  0  0  0  0  0  0
    2.5352   -0.9293   -1.7740 C   0  0  0  0  0  0  0  0  0  0  0  0
    3.9968   -0.7265   -2.0034 C   0  0  0  0  0  0  0  0  0  0  0  0
    2.1261   -2.0107   -1.2712 O   0  0  0  0  0  0  0  0  0  0  0  0
    0.3934    1.5027    0.0709 O   0  0  0  0  0  0  0  0  0  0  0  0
    1.4685    1.4344    0.9924 C   0  0  0  0  0  0  0  0  0  0  0  0
    0.9334    1.2410    2.4165 C   0  0  0  0  0  0  0  0  0  0  0  0
    2.2613    2.7369    0.9023 C   0  0  0  0  0  0  0  0  0  0  0  0
   -2.3922    1.2361   -0.2485 C   0  0  0  0  0  0  0  0  0  0  0  0
   -3.7663    1.1573   -0.0199 C   0  0  0  0  0  0  0  0  0  0  0  0
   -4.3363   -0.0409    0.4055 C   0  0  0  0  0  0  0  0  0  0  0  0
   -3.5365   -1.1687    0.5955 C   0  0  0  0  0  0  0  0  0  0  0  0
   -2.2511   -3.4667    1.9376 H   0  0  0  0  0  0  0  0  0  0  0  0
   -2.5193   -3.9123    0.1918 H   0  0  0  0  0  0  0  0  0  0  0  0
   -0.9242   -4.2188    0.9754 H   0  0  0  0  0  0  0  0  0  0  0  0
    0.4386   -0.6125    0.2212 H   0  0  0  0  0  0  0  0  0  0  0  0
   -0.3549    0.8158   -2.3886 H   0  0  0  0  0  0  0  0  0  0  0  0
   -0.2134   -0.9600   -2.1591 H   0  0  0  0  0  0  0  0  0  0  0  0
    1.9637    0.9583   -2.6138 H   0  0  0  0  0  0  0  0  0  0  0  0
    4.5656   -1.6437   -1.7416 H   0  0  0  0  0  0  0  0  0  0  0  0
    4.3561    0.1130   -1.3728 H   0  0  0  0  0  0  0  0  0  0  0  0
    4.1761   -0.4846   -3.0712 H   0  0  0  0  0  0  0  0  0  0  0  0
    2.1819    0.6129    0.7473 H   0  0  0  0  0  0  0  0  0  0  0  0
    0.3983    0.2720    2.4985 H   0  0  0  0  0  0  0  0  0  0  0  0
    1.7712    1.2351    3.1458 H   0  0  0  0  0  0  0  0  0  0  0  0
    0.2279    2.0580    2.6789 H   0  0  0  0  0  0  0  0  0  0  0  0
    2.6552    2.8638   -0.1286 H   0  0  0  0  0  0  0  0  0  0  0  0
    3.1209    2.7170    1.6059 H   0  0  0  0  0  0  0  0  0  0  0  0
    1.6122    3.6056    1.1446 H   0  0  0  0  0  0  0  0  0  0  0  0
   -1.9745    2.1744   -0.5913 H   0  0  0  0  0  0  0  0  0  0  0  0
   -4.3912    2.0271   -0.1767 H   0  0  0  0  0  0  0  0  0  0  0  0
   -5.4027   -0.0986    0.5818 H   0  0  0  0  0  0  0  0  0  0  0  0
   -4.0105   -2.0863    0.9159 H   0  0  0  0  0  0  0  0  0  0  0  0
  1  2  1  0
  2  3  1  0
  3  4  2  0
  4  5  1  0
  5  6  1  0
  6  7  1  0
  7  8  1  0
  8  9  1  0
  8 10  2  0
  5 11  1  0
 11 12  1  0
 12 13  1  0
 12 14  1  0
  4 15  1  0
 15 16  2  0
 16 17  1  0
 17 18  2  0
 18  3  1  0
  1 19  1  0
  1 20  1  0
  1 21  1  0
  5 22  1  1
  6 23  1  0
  6 24  1  0
  7 25  1  0
  9 26  1  0
  9 27  1  0
  9 28  1  0
 12 29  1  0
 13 30  1  0
 13 31  1  0
 13 32  1  0
 14 33  1  0
 14 34  1  0
 14 35  1  0
 15 36  1  0
 16 37  1  0
 17 38  1  0
 18 39  1  0
M  END
$$$$
mol_95
     RDKit          3D

 44 44  0  0  0  0  0  0  0  0999 V2000
   -4.6487    3.6479    0.5314 C   0  0  0  0  0  0  0  0  0  0  0  0
   -4.5034    2.3668    0.8796 C   0  0  0  0  0  0  0  0  0  0  0  0
   -4.3338    1.2813   -0.1470 C   0  0  0  0  0  0  0  0  0  0  0  0
   -3.2837    0.3421    0.2794 N   0  0  0  0  0  0  0  0  0  0  0  0
   -3.6392   -1.0550    0.5853 C   0  0  0  0  0  0  0  0  0  0  0  0
   -2.9631   -2.0320   -0.3863 C   0  0  0  0  0  0  0  0  0  0  0  0
   -3.4031   -1.8000   -1.8303 C   0  0  0  0  0  0  0  0  0  0  0  0
   -1.9074    0.7788    0.3808 C   0  0  0  0  0  0  0  0  0  0  0  0
   -1.3278    1.9189   -0.6575 S   0  0  0  0  0  0  0  0  0  0  0  0
   -1.0493    0.2235    1.3956 N   0  0  0  0  0  0  0  0  0  0  0  0
    0.4122    0.2799    1.3506 C   0  0  0  0  0  0  0  0  0  0  0  0
    0.9525   -0.6752    0.2804 C   0  0  0  0  0  0  0  0  0  0  0  0
    2.4539   -0.5889    0.1875 C   0  0  0  0  0  0  0  0  0  0  0  0
    3.2571   -1.0994    1.2193 C   0  0  0  0  0  0  0  0  0  0  0  0
    4.6499   -1.0215    1.1343 C   0  0  0  0  0  0  0  0  0  0  0  0
    5.2635   -0.4377    0.0201 C   0  0  0  0  0  0  0  0  0  0  0  0
    6.6647   -0.3831   -0.0174 O   0  0  0  0  0  0  0  0  0  0  0  0
    7.4189    0.1804   -1.0856 C   0  0  0  0  0  0  0  0  0  0  0  0
    4.4597    0.0705   -1.0182 C   0  0  0  0  0  0  0  0  0  0  0  0
    3.0662   -0.0070   -0.9337 C   0  0  0  0  0  0  0  0  0  0  0  0
   -4.6236    3.9534   -0.5099 H   0  0  0  0  0  0  0  0  0  0  0  0
   -4.7959    4.4039    1.2959 H   0  0  0  0  0  0  0  0  0  0  0  0
   -4.5647    2.0931    1.9289 H   0  0  0  0  0  0  0  0  0  0  0  0
   -5.3115    0.7676   -0.2622 H   0  0  0  0  0  0  0  0  0  0  0  0
   -4.0818    1.6982   -1.1463 H   0  0  0  0  0  0  0  0  0  0  0  0
   -3.3441   -1.3040    1.6248 H   0  0  0  0  0  0  0  0  0  0  0  0
   -4.7386   -1.2111    0.5386 H   0  0  0  0  0  0  0  0  0  0  0  0
   -3.2313   -3.0698   -0.0933 H   0  0  0  0  0  0  0  0  0  0  0  0
   -1.8587   -1.9376   -0.3178 H   0  0  0  0  0  0  0  0  0  0  0  0
   -4.5074   -1.8834   -1.9162 H   0  0  0  0  0  0  0  0  0  0  0  0
   -3.0824   -0.7953   -2.1778 H   0  0  0  0  0  0  0  0  0  0  0  0
   -2.9368   -2.5645   -2.4868 H   0  0  0  0  0  0  0  0  0  0  0  0
   -1.4844   -0.2181    2.2351 H   0  0  0  0  0  0  0  0  0  0  0  0
    0.7489    1.3207    1.1546 H   0  0  0  0  0  0  0  0  0  0  0  0
    0.8138   -0.0185    2.3434 H   0  0  0  0  0  0  0  0  0  0  0  0
    0.6589   -1.7185    0.5272 H   0  0  0  0  0  0  0  0  0  0  0  0
    0.4925   -0.4276   -0.7006 H   0  0  0  0  0  0  0  0  0  0  0  0
    2.8044   -1.5599    2.0887 H   0  0  0  0  0  0  0  0  0  0  0  0
    5.2568   -1.4183    1.9383 H   0  0  0  0  0  0  0  0  0  0  0  0
    7.2093   -0.3648   -2.0303 H   0  0  0  0  0  0  0  0  0  0  0  0
    7.1704    1.2565   -1.2023 H   0  0  0  0  0  0  0  0  0  0  0  0
    8.4998    0.0881   -0.8543 H   0  0  0  0  0  0  0  0  0  0  0  0
    4.9012    0.5270   -1.8935 H   0  0  0  0  0  0  0  0  0  0  0  0
    2.4659    0.3923   -1.7418 H   0  0  0  0  0  0  0  0  0  0  0  0
  1  2  2  3
  2  3  1  0
  3  4  1  0
  4  5  1  0
  5  6  1  0
  6  7  1  0
  4  8  1  0
  8  9  2  0
  8 10  1  0
 10 11  1  0
 11 12  1  0
 12 13  1  0
 13 14  2  0
 14 15  1  0
 15 16  2  0
 16 17  1  0
 17 18  1  0
 16 19  1  0
 19 20  2  0
 20 13  1  0
  1 21  1  0
  1 22  1  0
  2 23  1  0
  3 24  1  0
  3 25  1  0
  5 26  1  0
  5 27  1  0
  6 28  1  0
  6 29  1  0
  7 30  1  0
  7 31  1  0
  7 32  1  0
 10 33  1  0
 11 34  1  0
 11 35  1  0
 12 36  1  0
 12 37  1  0
 14 38  1  0
 15 39  1  0
 18 40  1  0
 18 41  1  0
 18 42  1  0
 19 43  1  0
 20 44  1  0
M  END
$$$$
mol_96
     RDKit          3D

 38 38  0  0  0  0  0  0  0  0999 V2000
    5.9868    0.4074   -0.1801 C   0  0  0  0  0  0  0  0  0  0  0  0
    4.8320    0.0419    1.1822 S   0  0  0  0  0  0  0  0  0  0  0  0
    3.3539   -0.2159    0.1284 C   0  0  1  0  0  0  0  0  0  0  0  0
    2.4468   -1.2468    0.8051 C   0  0  0  0  0  0  0  0  0  0  0  0
    2.6304    1.1285   -0.0799 C   0  0  0  0  0  0  0  0  0  0  0  0
    1.4495    1.0069   -1.0024 C   0  0  0  0  0  0  0  0  0  0  0  0
    1.6169    0.5549   -2.1679 O   0  0  0  0  0  0  0  0  0  0  0  0
    0.1467    1.4286   -0.5715 N   0  0  0  0  0  0  0  0  0  0  0  0
   -1.0382    1.2951   -1.4174 C   0  0  0  0  0  0  0  0  0  0  0  0
   -1.5786   -0.1412   -1.3857 C   0  0  0  0  0  0  0  0  0  0  0  0
   -2.3406   -0.4212   -0.1040 C   0  0  0  0  0  0  0  0  0  0  0  0
   -3.7645   -0.4032   -0.0269 C   0  0  0  0  0  0  0  0  0  0  0  0
   -4.6327   -0.0968   -1.2340 C   0  0  0  0  0  0  0  0  0  0  0  0
   -4.2320    1.0893   -1.8218 F   0  0  0  0  0  0  0  0  0  0  0  0
   -4.5278   -1.1253   -2.1525 F   0  0  0  0  0  0  0  0  0  0  0  0
   -5.9665    0.0368   -0.8869 F   0  0  0  0  0  0  0  0  0  0  0  0
   -4.3803   -0.7086    1.2055 C   0  0  0  0  0  0  0  0  0  0  0  0
   -3.6170   -0.9982    2.3365 C   0  0  0  0  0  0  0  0  0  0  0  0
   -2.2277   -0.9979    2.2611 C   0  0  0  0  0  0  0  0  0  0  0  0
   -1.5948   -0.7150    1.0524 C   0  0  0  0  0  0  0  0  0  0  0  0
    5.6369    1.2831   -0.7634 H   0  0  0  0  0  0  0  0  0  0  0  0
    6.0808   -0.4750   -0.8465 H   0  0  0  0  0  0  0  0  0  0  0  0
    6.9843    0.6390    0.2461 H   0  0  0  0  0  0  0  0  0  0  0  0
    3.6643   -0.6299   -0.8561 H   0  0  0  0  0  0  0  0  0  0  0  0
    1.6001   -1.5119    0.1380 H   0  0  0  0  0  0  0  0  0  0  0  0
    3.0183   -2.1767    1.0110 H   0  0  0  0  0  0  0  0  0  0  0  0
    2.0491   -0.8509    1.7641 H   0  0  0  0  0  0  0  0  0  0  0  0
    3.3341    1.8620   -0.5258 H   0  0  0  0  0  0  0  0  0  0  0  0
    2.3089    1.5340    0.9040 H   0  0  0  0  0  0  0  0  0  0  0  0
    0.0416    1.8965    0.3569 H   0  0  0  0  0  0  0  0  0  0  0  0
   -1.8230    2.0015   -1.0691 H   0  0  0  0  0  0  0  0  0  0  0  0
   -0.7849    1.5793   -2.4618 H   0  0  0  0  0  0  0  0  0  0  0  0
   -0.7428   -0.8671   -1.4911 H   0  0  0  0  0  0  0  0  0  0  0  0
   -2.2131   -0.2995   -2.2789 H   0  0  0  0  0  0  0  0  0  0  0  0
   -5.4579   -0.7252    1.3036 H   0  0  0  0  0  0  0  0  0  0  0  0
   -4.1061   -1.2254    3.2751 H   0  0  0  0  0  0  0  0  0  0  0  0
   -1.6383   -1.2232    3.1405 H   0  0  0  0  0  0  0  0  0  0  0  0
   -0.5146   -0.7298    1.0179 H   0  0  0  0  0  0  0  0  0  0  0  0
  1  2  1  0
  2  3  1  0
  3  4  1  0
  3  5  1  0
  5  6  1  0
  6  7  2  0
  6  8  1  0
  8  9  1  0
  9 10  1  0
 10 11  1  0
 11 12  2  0
 12 13  1  0
 13 14  1  0
 13 15  1  0
 13 16  1  0
 12 17  1  0
 17 18  2  0
 18 19  1  0
 19 20  2  0
 20 11  1  0
  1 21  1  0
  1 22  1  0
  1 23  1  0
  3 24  1  6
  4 25  1  0
  4 26  1  0
  4 27  1  0
  5 28  1  0
  5 29  1  0
  8 30  1  0
  9 31  1  0
  9 32  1  0
 10 33  1  0
 10 34  1  0
 17 35  1  0
 18 36  1  0
 19 37  1  0
 20 38  1  0
M  END
$$$$
mol_97
     RDKit          3D

 41 41  0  0  0  0  0  0  0  0999 V2000
    1.9633   -1.8589    1.4273 C   0  0  0  0  0  0  0  0  0  0  0  0
    1.7825   -1.2714    0.2383 C   0  0  0  0  0  0  0  0  0  0  0  0
    2.9841   -0.7434   -0.5159 C   0  0  0  0  0  0  0  0  0  0  0  0
    3.4469    0.6295    0.0180 C   0  0  0  0  0  0  0  0  0  0  0  0
    2.3759    1.7096   -0.1931 C   0  0  0  0  0  0  0  0  0  0  0  0
    4.7551    1.0477   -0.6639 C   0  0  0  0  0  0  0  0  0  0  0  0
    0.4232   -1.1186   -0.3383 C   0  0  0  0  0  0  0  0  0  0  0  0
    0.2939   -1.0329   -1.5898 O   0  0  0  0  0  0  0  0  0  0  0  0
   -0.7376   -1.0329    0.5071 N   0  0  0  0  0  0  0  0  0  0  0  0
   -2.1081   -0.9877   -0.0199 C   0  0  2  0  0  0  0  0  0  0  0  0
   -2.7368    0.3872    0.2604 C   0  0  0  0  0  0  0  0  0  0  0  0
   -1.9548    1.4942   -0.3827 C   0  0  0  0  0  0  0  0  0  0  0  0
   -1.2974    2.5200    0.2843 C   0  0  0  0  0  0  0  0  0  0  0  0
   -0.6589    3.4181   -0.5791 C   0  0  0  0  0  0  0  0  0  0  0  0
   -0.8127    3.1049   -1.9235 C   0  0  0  0  0  0  0  0  0  0  0  0
   -1.7474    1.7116   -2.0380 S   0  0  0  0  0  0  0  0  0  0  0  0
   -2.9477   -2.0742    0.5974 C   0  0  0  0  0  0  0  0  0  0  0  0
   -2.4828   -2.8017    1.5187 O   0  0  0  0  0  0  0  0  0  0  0  0
   -4.2513   -2.2725    0.1318 O   0  0  0  0  0  0  0  0  0  0  0  0
   -5.1113   -3.2731    0.6631 C   0  0  0  0  0  0  0  0  0  0  0  0
    2.9553   -1.9555    1.8511 H   0  0  0  0  0  0  0  0  0  0  0  0
    1.1388   -2.2806    1.9863 H   0  0  0  0  0  0  0  0  0  0  0  0
    2.7627   -0.6652   -1.6024 H   0  0  0  0  0  0  0  0  0  0  0  0
    3.8166   -1.4762   -0.4223 H   0  0  0  0  0  0  0  0  0  0  0  0
    3.6469    0.5440    1.1093 H   0  0  0  0  0  0  0  0  0  0  0  0
    2.7512    2.6980    0.1476 H   0  0  0  0  0  0  0  0  0  0  0  0
    2.0961    1.7823   -1.2661 H   0  0  0  0  0  0  0  0  0  0  0  0
    1.4695    1.4733    0.4016 H   0  0  0  0  0  0  0  0  0  0  0  0
    4.6091    1.1536   -1.7606 H   0  0  0  0  0  0  0  0  0  0  0  0
    5.1097    2.0174   -0.2538 H   0  0  0  0  0  0  0  0  0  0  0  0
    5.5446    0.2884   -0.4785 H   0  0  0  0  0  0  0  0  0  0  0  0
   -0.6081   -0.8890    1.5342 H   0  0  0  0  0  0  0  0  0  0  0  0
   -2.1090   -1.1667   -1.1170 H   0  0  0  0  0  0  0  0  0  0  0  0
   -2.7890    0.5546    1.3590 H   0  0  0  0  0  0  0  0  0  0  0  0
   -3.7740    0.4178   -0.1379 H   0  0  0  0  0  0  0  0  0  0  0  0
   -1.2741    2.6161    1.3619 H   0  0  0  0  0  0  0  0  0  0  0  0
   -0.0944    4.2730   -0.2319 H   0  0  0  0  0  0  0  0  0  0  0  0
   -0.4008    3.6636   -2.7528 H   0  0  0  0  0  0  0  0  0  0  0  0
   -5.2806   -3.0928    1.7458 H   0  0  0  0  0  0  0  0  0  0  0  0
   -4.6622   -4.2780    0.5152 H   0  0  0  0  0  0  0  0  0  0  0  0
   -6.0861   -3.2335    0.1352 H   0  0  0  0  0  0  0  0  0  0  0  0
  1  2  2  3
  2  3  1  0
  3  4  1  0
  4  5  1  0
  4  6  1  0
  2  7  1  0
  7  8  2  0
  7  9  1  0
  9 10  1  0
 10 11  1  0
 11 12  1  0
 12 13  2  0
 13 14  1  0
 14 15  2  0
 15 16  1  0
 10 17  1  0
 17 18  2  0
 17 19  1  0
 19 20  1  0
 16 12  1  0
  1 21  1  0
  1 22  1  0
  3 23  1  0
  3 24  1  0
  4 25  1  0
  5 26  1  0
  5 27  1  0
  5 28  1  0
  6 29  1  0
  6 30  1  0
  6 31  1  0
  9 32  1  0
 10 33  1  6
 11 34  1  0
 11 35  1  0
 13 36  1  0
 14 37  1  0
 15 38  1  0
 20 39  1  0
 20 40  1  0
 20 41  1  0
M  END
$$$$
mol_98
     RDKit          3D

 40 41  0  0  0  0  0  0  0  0999 V2000
    1.7954    2.8586    2.3663 C   0  0  0  0  0  0  0  0  0  0  0  0
    1.4044    2.2988    1.0369 C   0  0  0  0  0  0  0  0  0  0  0  0
    1.9620    2.7441   -0.0022 O   0  0  0  0  0  0  0  0  0  0  0  0
    0.4119    1.2648    0.9457 N   0  0  0  0  0  0  0  0  0  0  0  0
    0.1062    0.5651   -0.3058 C   0  0  1  0  0  0  0  0  0  0  0  0
    0.8098   -0.8051   -0.3266 C   0  0  0  0  0  0  0  0  0  0  0  0
    2.3100   -0.6570   -0.2766 C   0  0  0  0  0  0  0  0  0  0  0  0
    3.0213   -0.9965    0.8864 C   0  0  0  0  0  0  0  0  0  0  0  0
    4.4094   -0.8373    0.9356 C   0  0  0  0  0  0  0  0  0  0  0  0
    5.1012   -0.3417   -0.1777 C   0  0  0  0  0  0  0  0  0  0  0  0
    6.4839   -0.1774   -0.1396 O   0  0  0  0  0  0  0  0  0  0  0  0
    4.3979   -0.0082   -1.3395 C   0  0  0  0  0  0  0  0  0  0  0  0
    3.0098   -0.1655   -1.3912 C   0  0  0  0  0  0  0  0  0  0  0  0
   -1.3836    0.4182   -0.4363 C   0  0  0  0  0  0  0  0  0  0  0  0
   -2.2318    1.4607   -0.5272 N   0  0  0  0  0  0  0  0  0  0  0  0
   -3.4471    0.9453   -0.6255 N   0  0  0  0  0  0  0  0  0  0  0  0
   -3.2935   -0.3930   -0.5906 C   0  0  0  0  0  0  0  0  0  0  0  0
   -4.4202   -1.3817   -0.6727 C   0  0  0  0  0  0  0  0  0  0  0  0
   -5.1621   -1.2378   -2.0042 C   0  0  0  0  0  0  0  0  0  0  0  0
   -5.3752   -1.2031    0.5106 C   0  0  0  0  0  0  0  0  0  0  0  0
   -2.0302   -0.7235   -0.4747 O   0  0  0  0  0  0  0  0  0  0  0  0
    1.2246    2.3749    3.1862 H   0  0  0  0  0  0  0  0  0  0  0  0
    2.8789    2.6863    2.5360 H   0  0  0  0  0  0  0  0  0  0  0  0
    1.5920    3.9497    2.3844 H   0  0  0  0  0  0  0  0  0  0  0  0
   -0.0087    0.8964    1.8294 H   0  0  0  0  0  0  0  0  0  0  0  0
    0.4482    1.1605   -1.1801 H   0  0  0  0  0  0  0  0  0  0  0  0
    0.5370   -1.3572   -1.2529 H   0  0  0  0  0  0  0  0  0  0  0  0
    0.4530   -1.4126    0.5350 H   0  0  0  0  0  0  0  0  0  0  0  0
    2.5015   -1.3726    1.7588 H   0  0  0  0  0  0  0  0  0  0  0  0
    4.9456   -1.0970    1.8394 H   0  0  0  0  0  0  0  0  0  0  0  0
    7.0220   -0.4096    0.6872 H   0  0  0  0  0  0  0  0  0  0  0  0
    4.9275    0.3743   -2.2028 H   0  0  0  0  0  0  0  0  0  0  0  0
    2.4794    0.0985   -2.2977 H   0  0  0  0  0  0  0  0  0  0  0  0
   -3.9931   -2.4075   -0.6224 H   0  0  0  0  0  0  0  0  0  0  0  0
   -5.6247   -0.2309   -2.0918 H   0  0  0  0  0  0  0  0  0  0  0  0
   -4.4576   -1.3843   -2.8510 H   0  0  0  0  0  0  0  0  0  0  0  0
   -5.9609   -2.0061   -2.0806 H   0  0  0  0  0  0  0  0  0  0  0  0
   -6.1775   -1.9706    0.4724 H   0  0  0  0  0  0  0  0  0  0  0  0
   -4.8236   -1.3250    1.4675 H   0  0  0  0  0  0  0  0  0  0  0  0
   -5.8432   -0.1951    0.4916 H   0  0  0  0  0  0  0  0  0  0  0  0
  1  2  1  0
  2  3  2  0
  2  4  1  0
  4  5  1  0
  5  6  1  0
  6  7  1  0
  7  8  2  0
  8  9  1  0
  9 10  2  0
 10 11  1  0
 10 12  1  0
 12 13  2  0
  5 14  1  0
 14 15  2  0
 15 16  1  0
 16 17  2  0
 17 18  1  0
 18 19  1  0
 18 20  1  0
 17 21  1  0
 13  7  1  0
 21 14  1  0
  1 22  1  0
  1 23  1  0
  1 24  1  0
  4 25  1  0
  5 26  1  6
  6 27  1  0
  6 28  1  0
  8 29  1  0
  9 30  1  0
 11 31  1  0
 12 32  1  0
 13 33  1  0
 18 34  1  0
 19 35  1  0
 19 36  1  0
 19 37  1  0
 20 38  1  0
 20 39  1  0
 20 40  1  0
M  END
$$$$
mol_99
     RDKit          3D

 38 38  0  0  0  0  0  0  0  0999 V2000
    5.5722   -0.7942    1.8208 C   0  0  0  0  0  0  0  0  0  0  0  0
    4.0870   -1.0774    1.6002 C   0  0  0  0  0  0  0  0  0  0  0  0
    3.7473   -1.2753    0.1185 C   0  0  0  0  0  0  0  0  0  0  0  0
    3.9092    0.2855   -0.8284 S   0  0  0  0  0  0  0  0  0  0  0  0
    2.2012    0.8856   -0.5427 C   0  0  0  0  0  0  0  0  0  0  0  0
    1.1984    0.2412   -1.4578 C   0  0  0  0  0  0  0  0  0  0  0  0
    1.5669   -0.5890   -2.3337 O   0  0  0  0  0  0  0  0  0  0  0  0
   -0.1874    0.5810   -1.3305 N   0  0  0  0  0  0  0  0  0  0  0  0
   -1.2063   -0.0410   -2.1798 C   0  0  0  0  0  0  0  0  0  0  0  0
   -2.6317    0.4615   -1.8580 C   0  0  2  0  0  0  0  0  0  0  0  0
   -2.7949    1.8715   -2.2457 N   0  0  0  0  0  0  0  0  0  0  0  0
   -3.0025    0.1860   -0.4038 C   0  0  0  0  0  0  0  0  0  0  0  0
   -3.2495   -1.1428   -0.0096 C   0  0  0  0  0  0  0  0  0  0  0  0
   -3.5818   -1.4445    1.3141 C   0  0  0  0  0  0  0  0  0  0  0  0
   -3.6716   -0.4250    2.2634 C   0  0  0  0  0  0  0  0  0  0  0  0
   -3.9930   -0.7196    3.5472 F   0  0  0  0  0  0  0  0  0  0  0  0
   -3.4288    0.8983    1.8898 C   0  0  0  0  0  0  0  0  0  0  0  0
   -3.0963    1.2065    0.5670 C   0  0  0  0  0  0  0  0  0  0  0  0
    5.8660    0.1588    1.3330 H   0  0  0  0  0  0  0  0  0  0  0  0
    5.7744   -0.7075    2.9091 H   0  0  0  0  0  0  0  0  0  0  0  0
    6.1891   -1.6223    1.4114 H   0  0  0  0  0  0  0  0  0  0  0  0
    3.4855   -0.2462    2.0249 H   0  0  0  0  0  0  0  0  0  0  0  0
    3.8199   -2.0043    2.1523 H   0  0  0  0  0  0  0  0  0  0  0  0
    4.4326   -2.0292   -0.3239 H   0  0  0  0  0  0  0  0  0  0  0  0
    2.7166   -1.6785    0.0269 H   0  0  0  0  0  0  0  0  0  0  0  0
    1.9033    0.7127    0.5121 H   0  0  0  0  0  0  0  0  0  0  0  0
    2.1870    1.9805   -0.7227 H   0  0  0  0  0  0  0  0  0  0  0  0
   -0.4583    1.2733   -0.5965 H   0  0  0  0  0  0  0  0  0  0  0  0
   -0.9750    0.1739   -3.2458 H   0  0  0  0  0  0  0  0  0  0  0  0
   -1.1666   -1.1439   -2.0454 H   0  0  0  0  0  0  0  0  0  0  0  0
   -3.3339   -0.1315   -2.4883 H   0  0  0  0  0  0  0  0  0  0  0  0
   -2.0814    2.4824   -1.7879 H   0  0  0  0  0  0  0  0  0  0  0  0
   -3.7561    2.2021   -1.9983 H   0  0  0  0  0  0  0  0  0  0  0  0
   -2.6844    1.9609   -3.2821 H   0  0  0  0  0  0  0  0  0  0  0  0
   -3.1860   -1.9480   -0.7311 H   0  0  0  0  0  0  0  0  0  0  0  0
   -3.7693   -2.4708    1.6025 H   0  0  0  0  0  0  0  0  0  0  0  0
   -3.4956    1.6884    2.6267 H   0  0  0  0  0  0  0  0  0  0  0  0
   -2.9060    2.2409    0.3194 H   0  0  0  0  0  0  0  0  0  0  0  0
  1  2  1  0
  2  3  1  0
  3  4  1  0
  4  5  1  0
  5  6  1  0
  6  7  2  0
  6  8  1  0
  8  9  1  0
  9 10  1  0
 10 11  1  0
 10 12  1  0
 12 13  2  0
 13 14  1  0
 14 15  2  0
 15 16  1  0
 15 17  1  0
 17 18  2  0
 18 12  1  0
  1 19  1  0
  1 20  1  0
  1 21  1  0
  2 22  1  0
  2 23  1  0
  3 24  1  0
  3 25  1  0
  5 26  1  0
  5 27  1  0
  8 28  1  0
  9 29  1  0
  9 30  1  0
 10 31  1  6
 11 32  1  0
 11 33  1  0
 11 34  1  0
 13 35  1  0
 14 36  1  0
 17 37  1  0
 18 38  1  0
M  CHG  1  11   1
M  END
$$$$
mol_100
     RDKit          3D

 37 37  0  0  0  0  0  0  0  0999 V2000
    5.7445   -0.0595    2.0040 C   0  0  0  0  0  0  0  0  0  0  0  0
    5.6760    1.0586    0.9656 C   0  0  0  0  0  0  0  0  0  0  0  0
    4.3254    1.1043    0.2452 C   0  0  0  0  0  0  0  0  0  0  0  0
    4.1276   -0.3226   -0.8890 S   0  0  0  0  0  0  0  0  0  0  0  0
    2.8528   -1.2040    0.0888 C   0  0  0  0  0  0  0  0  0  0  0  0
    1.4862   -0.5951   -0.0521 C   0  0  0  0  0  0  0  0  0  0  0  0
    1.3035    0.4092   -0.7937 O   0  0  0  0  0  0  0  0  0  0  0  0
    0.3859   -1.1667    0.6684 N   0  0  0  0  0  0  0  0  0  0  0  0
   -0.9747   -0.6418    0.5738 C   0  0  0  0  0  0  0  0  0  0  0  0
   -1.6138   -1.0478   -0.7583 C   0  0  0  0  0  0  0  0  0  0  0  0
   -3.0361   -0.5576   -0.8473 C   0  0  0  0  0  0  0  0  0  0  0  0
   -3.3027    0.8135   -0.9950 C   0  0  0  0  0  0  0  0  0  0  0  0
   -4.6238    1.2763   -1.0828 C   0  0  0  0  0  0  0  0  0  0  0  0
   -4.8804    2.6389   -1.2269 O   0  0  0  0  0  0  0  0  0  0  0  0
   -5.6889    0.3613   -1.0260 C   0  0  0  0  0  0  0  0  0  0  0  0
   -7.0133    0.7897   -1.1097 O   0  0  0  0  0  0  0  0  0  0  0  0
   -5.4238   -1.0046   -0.8839 C   0  0  0  0  0  0  0  0  0  0  0  0
   -4.1069   -1.4639   -0.7968 C   0  0  0  0  0  0  0  0  0  0  0  0
    5.6765   -1.0531    1.5135 H   0  0  0  0  0  0  0  0  0  0  0  0
    6.7128   -0.0031    2.5445 H   0  0  0  0  0  0  0  0  0  0  0  0
    4.9208    0.0459    2.7417 H   0  0  0  0  0  0  0  0  0  0  0  0
    5.8360    2.0295    1.4826 H   0  0  0  0  0  0  0  0  0  0  0  0
    6.4944    0.9289    0.2247 H   0  0  0  0  0  0  0  0  0  0  0  0
    3.4974    1.1769    0.9825 H   0  0  0  0  0  0  0  0  0  0  0  0
    4.2909    2.0255   -0.3737 H   0  0  0  0  0  0  0  0  0  0  0  0
    2.8083   -2.2526   -0.2718 H   0  0  0  0  0  0  0  0  0  0  0  0
    3.1413   -1.2266    1.1603 H   0  0  0  0  0  0  0  0  0  0  0  0
    0.5704   -1.9551    1.3293 H   0  0  0  0  0  0  0  0  0  0  0  0
   -1.5817   -1.0576    1.4079 H   0  0  0  0  0  0  0  0  0  0  0  0
   -0.9566    0.4643    0.6834 H   0  0  0  0  0  0  0  0  0  0  0  0
   -1.0328   -0.6293   -1.6078 H   0  0  0  0  0  0  0  0  0  0  0  0
   -1.5781   -2.1560   -0.8470 H   0  0  0  0  0  0  0  0  0  0  0  0
   -2.4839    1.5209   -1.0449 H   0  0  0  0  0  0  0  0  0  0  0  0
   -4.1301    3.3187   -1.2705 H   0  0  0  0  0  0  0  0  0  0  0  0
   -7.2569    1.7675   -1.2132 H   0  0  0  0  0  0  0  0  0  0  0  0
   -6.2417   -1.7127   -0.8407 H   0  0  0  0  0  0  0  0  0  0  0  0
   -3.9247   -2.5255   -0.6852 H   0  0  0  0  0  0  0  0  0  0  0  0
  1  2  1  0
  2  3  1  0
  3  4  1  0
  4  5  1  0
  5  6  1  0
  6  7  2  0
  6  8  1  0
  8  9  1  0
  9 10  1  0
 10 11  1  0
 11 12  2  0
 12 13  1  0
 13 14  1  0
 13 15  2  0
 15 16  1  0
 15 17  1  0
 17 18  2  0
 18 11  1  0
  1 19  1  0
  1 20  1  0
  1 21  1  0
  2 22  1  0
  2 23  1  0
  3 24  1  0
  3 25  1  0
  5 26  1  0
  5 27  1  0
  8 28  1  0
  9 29  1  0
  9 30  1  0
 10 31  1  0
 10 32  1  0
 12 33  1  0
 14 34  1  0
 16 35  1  0
 17 36  1  0
 18 37  1  0
M  END
$$$$
